/*---------------------------------------------------------------------------*\
  =========                 |
  \\      /  F ield         | OpenFOAM: The Open Source CFD Toolbox
   \\    /   O peration     | Website:  https://openfoam.org
    \\  /    A nd           | Version:  13
     \\/     M anipulation  |
\*---------------------------------------------------------------------------*/
Build  : 13-cde978a97c93
Exec   : foamRun
Date   : Dec 28 2025
Time   : 14:36:27
Host   : "HOME"
PID    : 55571
I/O    : uncollated
Case   : /home/ahmed/OpenFOAM/ahmed-13/run/exercises/cavity_revisited
nProcs : 1
sigFpe : Enabling floating point exception trapping (FOAM_SIGFPE).
fileModificationChecking : Monitoring run-time modified files using timeStampMaster (fileModificationSkew 10)
allowSystemOperations : Allowing user-supplied system call operations

// * * * * * * * * * * * * * * * * * * * * * * * * * * * * * * * * * * * * * //
Create time

Create mesh for time = 0

Selecting solver incompressibleFluid
Selecting viscosity model constant
Selecting turbulence model type laminar
    Selecting laminar stress model Stokes
No MRF models present

Courant Number mean: 0 max: 0

PIMPLE: No convergence criteria found


PIMPLE: Operating solver in transient mode with 1 outer corrector
PIMPLE: Operating solver in PISO mode



Starting time loop

Courant Number mean: 0 max: 0
Time = 0.01s

smoothSolver:  Solving for Ux, Initial residual = 1, Final residual = 1.4088e-10, No Iterations 4
smoothSolver:  Solving for Uy, Initial residual = 0.999906, Final residual = 8.80234e-11, No Iterations 4
DICPCG:  Solving for p, Initial residual = 1, Final residual = 2.90896e-07, No Iterations 36
DICPCG:  Solving for p, Initial residual = 1.3225e-07, Final residual = 1.3225e-07, No Iterations 0
time step continuity errors : sum local = 1.92707e-11, global = 9.28348e-21, cumulative = 9.28348e-21
ExecutionTime = 0.041071 s  ClockTime = 0 s

Courant Number mean: 0.00139205 max: 0.0115296
Time = 0.02s

smoothSolver:  Solving for Ux, Initial residual = 0.296771, Final residual = 1.17781e-09, No Iterations 3
smoothSolver:  Solving for Uy, Initial residual = 0.321553, Final residual = 2.08078e-09, No Iterations 3
DICPCG:  Solving for p, Initial residual = 0.299878, Final residual = 8.82449e-07, No Iterations 32
DICPCG:  Solving for p, Initial residual = 6.92826e-07, Final residual = 6.92826e-07, No Iterations 0
time step continuity errors : sum local = 1.08892e-10, global = 1.90328e-20, cumulative = 2.83163e-20
ExecutionTime = 0.041562 s  ClockTime = 0 s

Courant Number mean: 0.00265235 max: 0.021949
Time = 0.03s

smoothSolver:  Solving for Ux, Initial residual = 0.174933, Final residual = 7.31886e-10, No Iterations 3
smoothSolver:  Solving for Uy, Initial residual = 0.202224, Final residual = 1.29293e-09, No Iterations 3
DICPCG:  Solving for p, Initial residual = 0.0679252, Final residual = 8.94484e-07, No Iterations 30
DICPCG:  Solving for p, Initial residual = 8.4114e-07, Final residual = 8.4114e-07, No Iterations 0
time step continuity errors : sum local = 1.42905e-10, global = 1.67268e-20, cumulative = 4.50431e-20
ExecutionTime = 0.041973 s  ClockTime = 0 s

Courant Number mean: 0.00380181 max: 0.0314129
Time = 0.04s

smoothSolver:  Solving for Ux, Initial residual = 0.119632, Final residual = 5.16176e-10, No Iterations 3
smoothSolver:  Solving for Uy, Initial residual = 0.139267, Final residual = 8.9121e-10, No Iterations 3
DICPCG:  Solving for p, Initial residual = 0.0269005, Final residual = 8.81175e-07, No Iterations 30
DICPCG:  Solving for p, Initial residual = 8.64241e-07, Final residual = 8.64241e-07, No Iterations 0
time step continuity errors : sum local = 1.51557e-10, global = -3.37246e-20, cumulative = 1.13185e-20
ExecutionTime = 0.042367 s  ClockTime = 0 s

Courant Number mean: 0.0048537 max: 0.0400275
Time = 0.05s

smoothSolver:  Solving for Ux, Initial residual = 0.088838, Final residual = 3.90825e-10, No Iterations 3
smoothSolver:  Solving for Uy, Initial residual = 0.103009, Final residual = 6.62874e-10, No Iterations 3
DICPCG:  Solving for p, Initial residual = 0.0236988, Final residual = 8.92307e-07, No Iterations 30
DICPCG:  Solving for p, Initial residual = 8.79826e-07, Final residual = 8.79826e-07, No Iterations 0
time step continuity errors : sum local = 1.58623e-10, global = -3.82181e-20, cumulative = -2.68996e-20
ExecutionTime = 0.042745 s  ClockTime = 0 s

Courant Number mean: 0.00581825 max: 0.0478784
Time = 0.06s

smoothSolver:  Solving for Ux, Initial residual = 0.0702476, Final residual = 3.10834e-10, No Iterations 3
smoothSolver:  Solving for Uy, Initial residual = 0.0803747, Final residual = 5.20646e-10, No Iterations 3
DICPCG:  Solving for p, Initial residual = 0.0211784, Final residual = 7.02329e-07, No Iterations 30
DICPCG:  Solving for p, Initial residual = 6.92477e-07, Final residual = 6.92477e-07, No Iterations 0
time step continuity errors : sum local = 1.28604e-10, global = -8.9362e-22, cumulative = -2.77933e-20
ExecutionTime = 0.043311 s  ClockTime = 0 s

Courant Number mean: 0.00670436 max: 0.0550412
Time = 0.07s

smoothSolver:  Solving for Ux, Initial residual = 0.0577958, Final residual = 2.56084e-10, No Iterations 3
smoothSolver:  Solving for Uy, Initial residual = 0.0652325, Final residual = 4.25232e-10, No Iterations 3
DICPCG:  Solving for p, Initial residual = 0.0191038, Final residual = 5.19042e-07, No Iterations 30
DICPCG:  Solving for p, Initial residual = 5.12091e-07, Final residual = 5.12091e-07, No Iterations 0
time step continuity errors : sum local = 9.78541e-11, global = 2.22727e-20, cumulative = -5.52054e-21
ExecutionTime = 0.043705 s  ClockTime = 0 s

Courant Number mean: 0.00752217 max: 0.0615838
Time = 0.08s

smoothSolver:  Solving for Ux, Initial residual = 0.0489425, Final residual = 2.16696e-10, No Iterations 3
smoothSolver:  Solving for Uy, Initial residual = 0.054505, Final residual = 3.57361e-10, No Iterations 3
DICPCG:  Solving for p, Initial residual = 0.0173138, Final residual = 3.73381e-07, No Iterations 30
DICPCG:  Solving for p, Initial residual = 3.68767e-07, Final residual = 3.68767e-07, No Iterations 0
time step continuity errors : sum local = 7.23175e-11, global = 4.83952e-20, cumulative = 4.28747e-20
ExecutionTime = 0.044131 s  ClockTime = 0 s

Courant Number mean: 0.00829818 max: 0.0675676
Time = 0.09s

smoothSolver:  Solving for Ux, Initial residual = 0.0422672, Final residual = 1.87132e-10, No Iterations 3
smoothSolver:  Solving for Uy, Initial residual = 0.0465436, Final residual = 3.06774e-10, No Iterations 3
DICPCG:  Solving for p, Initial residual = 0.0159201, Final residual = 8.05729e-07, No Iterations 29
DICPCG:  Solving for p, Initial residual = 7.96992e-07, Final residual = 7.96992e-07, No Iterations 0
time step continuity errors : sum local = 1.59567e-10, global = 7.37596e-20, cumulative = 1.16634e-19
ExecutionTime = 0.044516 s  ClockTime = 0 s

Courant Number mean: 0.00903261 max: 0.0730468
Time = 0.1s

smoothSolver:  Solving for Ux, Initial residual = 0.03698, Final residual = 1.63885e-10, No Iterations 3
smoothSolver:  Solving for Uy, Initial residual = 0.0404246, Final residual = 2.67772e-10, No Iterations 3
DICPCG:  Solving for p, Initial residual = 0.0149443, Final residual = 6.40752e-07, No Iterations 29
DICPCG:  Solving for p, Initial residual = 6.34629e-07, Final residual = 6.34629e-07, No Iterations 0
time step continuity errors : sum local = 1.29009e-10, global = 8.96415e-20, cumulative = 2.06276e-19
ExecutionTime = 0.044886 s  ClockTime = 0 s

Courant Number mean: 0.00972773 max: 0.0780708
Time = 0.11s

smoothSolver:  Solving for Ux, Initial residual = 0.0326605, Final residual = 1.45194e-10, No Iterations 3
smoothSolver:  Solving for Uy, Initial residual = 0.0355812, Final residual = 2.36798e-10, No Iterations 3
DICPCG:  Solving for p, Initial residual = 0.0150992, Final residual = 6.56945e-07, No Iterations 29
DICPCG:  Solving for p, Initial residual = 6.51326e-07, Final residual = 6.51326e-07, No Iterations 0
time step continuity errors : sum local = 1.3531e-10, global = 1.11063e-19, cumulative = 3.17339e-19
ExecutionTime = 0.045256 s  ClockTime = 0 s

Courant Number mean: 0.0103876 max: 0.0826836
Time = 0.12s

smoothSolver:  Solving for Ux, Initial residual = 0.0291106, Final residual = 1.29948e-10, No Iterations 3
smoothSolver:  Solving for Uy, Initial residual = 0.0316591, Final residual = 2.11633e-10, No Iterations 3
DICPCG:  Solving for p, Initial residual = 0.0136379, Final residual = 7.27009e-07, No Iterations 29
DICPCG:  Solving for p, Initial residual = 7.21437e-07, Final residual = 7.21437e-07, No Iterations 0
time step continuity errors : sum local = 1.52743e-10, global = -7.27093e-20, cumulative = 2.44629e-19
ExecutionTime = 0.045647 s  ClockTime = 0 s

Courant Number mean: 0.0110129 max: 0.0869267
Time = 0.13s

smoothSolver:  Solving for Ux, Initial residual = 0.0261366, Final residual = 1.1737e-10, No Iterations 3
smoothSolver:  Solving for Uy, Initial residual = 0.0284404, Final residual = 1.90909e-10, No Iterations 3
DICPCG:  Solving for p, Initial residual = 0.0125771, Final residual = 4.31783e-07, No Iterations 29
DICPCG:  Solving for p, Initial residual = 4.28574e-07, Final residual = 4.28574e-07, No Iterations 0
time step continuity errors : sum local = 9.1523e-11, global = 8.01293e-20, cumulative = 3.24759e-19
ExecutionTime = 0.046041 s  ClockTime = 0 s

Courant Number mean: 0.0116081 max: 0.0908488
Time = 0.14s

smoothSolver:  Solving for Ux, Initial residual = 0.0236107, Final residual = 1.06783e-10, No Iterations 3
smoothSolver:  Solving for Uy, Initial residual = 0.025742, Final residual = 1.73449e-10, No Iterations 3
DICPCG:  Solving for p, Initial residual = 0.0115879, Final residual = 6.20989e-07, No Iterations 29
DICPCG:  Solving for p, Initial residual = 6.16691e-07, Final residual = 6.16691e-07, No Iterations 0
time step continuity errors : sum local = 1.34359e-10, global = 6.4798e-21, cumulative = 3.31239e-19
ExecutionTime = 0.046426 s  ClockTime = 0 s

Courant Number mean: 0.0121754 max: 0.0944683
Time = 0.15s

smoothSolver:  Solving for Ux, Initial residual = 0.0214505, Final residual = 9.78183e-11, No Iterations 3
smoothSolver:  Solving for Uy, Initial residual = 0.023459, Final residual = 1.58623e-10, No Iterations 3
DICPCG:  Solving for p, Initial residual = 0.011091, Final residual = 5.45248e-07, No Iterations 29
DICPCG:  Solving for p, Initial residual = 5.41766e-07, Final residual = 5.41766e-07, No Iterations 0
time step continuity errors : sum local = 1.19482e-10, global = -5.14573e-20, cumulative = 2.79781e-19
ExecutionTime = 0.046814 s  ClockTime = 0 s

Courant Number mean: 0.0127155 max: 0.0978126
Time = 0.16s

smoothSolver:  Solving for Ux, Initial residual = 0.0195781, Final residual = 9.01478e-11, No Iterations 3
smoothSolver:  Solving for Uy, Initial residual = 0.021504, Final residual = 1.45864e-10, No Iterations 3
DICPCG:  Solving for p, Initial residual = 0.0106009, Final residual = 5.50881e-07, No Iterations 29
DICPCG:  Solving for p, Initial residual = 5.47634e-07, Final residual = 5.47634e-07, No Iterations 0
time step continuity errors : sum local = 1.2225e-10, global = 6.02664e-20, cumulative = 3.40048e-19
ExecutionTime = 0.047227 s  ClockTime = 0 s

Courant Number mean: 0.0132315 max: 0.100907
Time = 0.17s

smoothSolver:  Solving for Ux, Initial residual = 0.0179423, Final residual = 8.35018e-11, No Iterations 3
smoothSolver:  Solving for Uy, Initial residual = 0.0198173, Final residual = 1.3482e-10, No Iterations 3
DICPCG:  Solving for p, Initial residual = 0.0101633, Final residual = 5.34681e-07, No Iterations 29
DICPCG:  Solving for p, Initial residual = 5.31529e-07, Final residual = 5.31529e-07, No Iterations 0
time step continuity errors : sum local = 1.20122e-10, global = 7.3082e-20, cumulative = 4.1313e-19
ExecutionTime = 0.047598 s  ClockTime = 0 s

Courant Number mean: 0.0137253 max: 0.103774
Time = 0.18s

smoothSolver:  Solving for Ux, Initial residual = 0.016516, Final residual = 7.77093e-11, No Iterations 3
smoothSolver:  Solving for Uy, Initial residual = 0.0183494, Final residual = 1.25194e-10, No Iterations 3
DICPCG:  Solving for p, Initial residual = 0.00978477, Final residual = 5.07903e-07, No Iterations 29
DICPCG:  Solving for p, Initial residual = 5.05059e-07, Final residual = 5.05059e-07, No Iterations 0
time step continuity errors : sum local = 1.15467e-10, global = -7.39883e-20, cumulative = 3.39141e-19
ExecutionTime = 0.047994 s  ClockTime = 0 s

Courant Number mean: 0.0141963 max: 0.106435
Time = 0.19s

smoothSolver:  Solving for Ux, Initial residual = 0.0153022, Final residual = 7.26026e-11, No Iterations 3
smoothSolver:  Solving for Uy, Initial residual = 0.0170616, Final residual = 1.16728e-10, No Iterations 3
DICPCG:  Solving for p, Initial residual = 0.00938788, Final residual = 4.90712e-07, No Iterations 29
DICPCG:  Solving for p, Initial residual = 4.88021e-07, Final residual = 4.88021e-07, No Iterations 0
time step continuity errors : sum local = 1.12856e-10, global = 4.13521e-20, cumulative = 3.80494e-19
ExecutionTime = 0.048377 s  ClockTime = 0 s

Courant Number mean: 0.0146465 max: 0.108907
Time = 0.2s

smoothSolver:  Solving for Ux, Initial residual = 0.0142478, Final residual = 6.80747e-11, No Iterations 3
smoothSolver:  Solving for Uy, Initial residual = 0.0159235, Final residual = 1.09226e-10, No Iterations 3
DICPCG:  Solving for p, Initial residual = 0.0092868, Final residual = 4.36246e-07, No Iterations 29
DICPCG:  Solving for p, Initial residual = 4.33853e-07, Final residual = 4.33853e-07, No Iterations 0
time step continuity errors : sum local = 1.01411e-10, global = -4.25719e-20, cumulative = 3.37922e-19
ExecutionTime = 0.048756 s  ClockTime = 0 s

Courant Number mean: 0.0150797 max: 0.111207
Time = 0.21s

smoothSolver:  Solving for Ux, Initial residual = 0.0133207, Final residual = 6.40313e-11, No Iterations 3
smoothSolver:  Solving for Uy, Initial residual = 0.0149153, Final residual = 1.02539e-10, No Iterations 3
DICPCG:  Solving for p, Initial residual = 0.00955912, Final residual = 4.96269e-07, No Iterations 29
DICPCG:  Solving for p, Initial residual = 4.93673e-07, Final residual = 4.93673e-07, No Iterations 0
time step continuity errors : sum local = 1.16629e-10, global = 5.97243e-20, cumulative = 3.97646e-19
ExecutionTime = 0.049231 s  ClockTime = 0 s

Courant Number mean: 0.0154941 max: 0.11335
Time = 0.22s

smoothSolver:  Solving for Ux, Initial residual = 0.0124916, Final residual = 6.03747e-11, No Iterations 3
smoothSolver:  Solving for Uy, Initial residual = 0.0140122, Final residual = 9.65457e-11, No Iterations 3
DICPCG:  Solving for p, Initial residual = 0.0109275, Final residual = 8.35819e-07, No Iterations 28
DICPCG:  Solving for p, Initial residual = 8.31462e-07, Final residual = 8.31462e-07, No Iterations 0
time step continuity errors : sum local = 1.96354e-10, global = -2.298e-20, cumulative = 3.74666e-19
ExecutionTime = 0.049617 s  ClockTime = 0 s

Courant Number mean: 0.0158911 max: 0.115349
Time = 0.23s

smoothSolver:  Solving for Ux, Initial residual = 0.0117558, Final residual = 5.71059e-11, No Iterations 3
smoothSolver:  Solving for Uy, Initial residual = 0.0132014, Final residual = 9.11465e-11, No Iterations 3
DICPCG:  Solving for p, Initial residual = 0.00879401, Final residual = 5.69833e-07, No Iterations 29
DICPCG:  Solving for p, Initial residual = 5.66961e-07, Final residual = 5.66961e-07, No Iterations 0
time step continuity errors : sum local = 1.36393e-10, global = -6.12828e-20, cumulative = 3.13383e-19
ExecutionTime = 0.050014 s  ClockTime = 0 s

Courant Number mean: 0.0162749 max: 0.117217
Time = 0.24s

smoothSolver:  Solving for Ux, Initial residual = 0.0110981, Final residual = 5.4154e-11, No Iterations 3
smoothSolver:  Solving for Uy, Initial residual = 0.0124795, Final residual = 8.62715e-11, No Iterations 3
DICPCG:  Solving for p, Initial residual = 0.0108543, Final residual = 6.41202e-07, No Iterations 29
DICPCG:  Solving for p, Initial residual = 6.38111e-07, Final residual = 6.38111e-07, No Iterations 0
time step continuity errors : sum local = 1.5381e-10, global = 6.95075e-20, cumulative = 3.82891e-19
ExecutionTime = 0.050391 s  ClockTime = 0 s

Courant Number mean: 0.0166445 max: 0.118966
Time = 0.25s

smoothSolver:  Solving for Ux, Initial residual = 0.0105081, Final residual = 5.14667e-11, No Iterations 3
smoothSolver:  Solving for Uy, Initial residual = 0.0118369, Final residual = 8.18535e-11, No Iterations 3
DICPCG:  Solving for p, Initial residual = 0.00812066, Final residual = 5.43231e-07, No Iterations 29
DICPCG:  Solving for p, Initial residual = 5.40854e-07, Final residual = 5.40854e-07, No Iterations 0
time step continuity errors : sum local = 1.32128e-10, global = 5.36087e-20, cumulative = 4.36499e-19
ExecutionTime = 0.050773 s  ClockTime = 0 s

Courant Number mean: 0.017 max: 0.120605
Time = 0.26s

smoothSolver:  Solving for Ux, Initial residual = 0.00997427, Final residual = 4.90199e-11, No Iterations 3
smoothSolver:  Solving for Uy, Initial residual = 0.0112432, Final residual = 7.7821e-11, No Iterations 3
DICPCG:  Solving for p, Initial residual = 0.00635466, Final residual = 4.26294e-07, No Iterations 29
DICPCG:  Solving for p, Initial residual = 4.24551e-07, Final residual = 4.24551e-07, No Iterations 0
time step continuity errors : sum local = 1.04729e-10, global = -3.47792e-20, cumulative = 4.0172e-19
ExecutionTime = 0.051277 s  ClockTime = 0 s

Courant Number mean: 0.0173421 max: 0.122143
Time = 0.27s

smoothSolver:  Solving for Ux, Initial residual = 0.00948492, Final residual = 4.67715e-11, No Iterations 3
smoothSolver:  Solving for Uy, Initial residual = 0.0106963, Final residual = 7.41314e-11, No Iterations 3
DICPCG:  Solving for p, Initial residual = 0.00652184, Final residual = 4.17674e-07, No Iterations 29
DICPCG:  Solving for p, Initial residual = 4.16028e-07, Final residual = 4.16028e-07, No Iterations 0
time step continuity errors : sum local = 1.03347e-10, global = -2.31685e-20, cumulative = 3.78552e-19
ExecutionTime = 0.051766 s  ClockTime = 0 s

Courant Number mean: 0.0176713 max: 0.123592
Time = 0.28s

smoothSolver:  Solving for Ux, Initial residual = 0.00903463, Final residual = 4.46957e-11, No Iterations 3
smoothSolver:  Solving for Uy, Initial residual = 0.0101957, Final residual = 7.0741e-11, No Iterations 3
DICPCG:  Solving for p, Initial residual = 0.00663942, Final residual = 4.21663e-07, No Iterations 29
DICPCG:  Solving for p, Initial residual = 4.20059e-07, Final residual = 4.20059e-07, No Iterations 0
time step continuity errors : sum local = 1.0501e-10, global = -1.22981e-19, cumulative = 2.55571e-19
ExecutionTime = 0.052182 s  ClockTime = 0 s

Courant Number mean: 0.0179885 max: 0.124975
Time = 0.29s

smoothSolver:  Solving for Ux, Initial residual = 0.00862514, Final residual = 4.27903e-11, No Iterations 3
smoothSolver:  Solving for Uy, Initial residual = 0.00973835, Final residual = 6.76173e-11, No Iterations 3
DICPCG:  Solving for p, Initial residual = 0.00655413, Final residual = 4.18048e-07, No Iterations 29
DICPCG:  Solving for p, Initial residual = 4.1652e-07, Final residual = 4.1652e-07, No Iterations 0
time step continuity errors : sum local = 1.04734e-10, global = 6.18927e-20, cumulative = 3.17464e-19
ExecutionTime = 0.052629 s  ClockTime = 0 s

Courant Number mean: 0.0182942 max: 0.126277
Time = 0.3s

smoothSolver:  Solving for Ux, Initial residual = 0.00824642, Final residual = 4.10423e-11, No Iterations 3
smoothSolver:  Solving for Uy, Initial residual = 0.00932219, Final residual = 6.47402e-11, No Iterations 3
DICPCG:  Solving for p, Initial residual = 0.00634803, Final residual = 4.07031e-07, No Iterations 29
DICPCG:  Solving for p, Initial residual = 4.05602e-07, Final residual = 4.05602e-07, No Iterations 0
time step continuity errors : sum local = 1.02597e-10, global = 2.66561e-20, cumulative = 3.4412e-19
ExecutionTime = 0.053211 s  ClockTime = 0 s

Courant Number mean: 0.0185894 max: 0.127505
Time = 0.31s

smoothSolver:  Solving for Ux, Initial residual = 0.0078948, Final residual = 3.94177e-11, No Iterations 3
smoothSolver:  Solving for Uy, Initial residual = 0.008937, Final residual = 6.20763e-11, No Iterations 3
DICPCG:  Solving for p, Initial residual = 0.00623158, Final residual = 9.71598e-07, No Iterations 28
DICPCG:  Solving for p, Initial residual = 9.68321e-07, Final residual = 9.68321e-07, No Iterations 0
time step continuity errors : sum local = 2.45218e-10, global = 1.02889e-19, cumulative = 4.47009e-19
ExecutionTime = 0.053779 s  ClockTime = 0 s

Courant Number mean: 0.0188744 max: 0.128667
Time = 0.32s

smoothSolver:  Solving for Ux, Initial residual = 0.00756844, Final residual = 3.79037e-11, No Iterations 3
smoothSolver:  Solving for Uy, Initial residual = 0.0085802, Final residual = 5.96034e-11, No Iterations 3
DICPCG:  Solving for p, Initial residual = 0.0061389, Final residual = 9.38089e-07, No Iterations 28
DICPCG:  Solving for p, Initial residual = 9.34859e-07, Final residual = 9.34859e-07, No Iterations 0
time step continuity errors : sum local = 2.38174e-10, global = 2.67662e-21, cumulative = 4.49686e-19
ExecutionTime = 0.054406 s  ClockTime = 0 s

Courant Number mean: 0.0191498 max: 0.129767
Time = 0.33s

smoothSolver:  Solving for Ux, Initial residual = 0.00726382, Final residual = 3.64927e-11, No Iterations 3
smoothSolver:  Solving for Uy, Initial residual = 0.0082503, Final residual = 5.73015e-11, No Iterations 3
DICPCG:  Solving for p, Initial residual = 0.00612173, Final residual = 9.05126e-07, No Iterations 28
DICPCG:  Solving for p, Initial residual = 9.02153e-07, Final residual = 9.02153e-07, No Iterations 0
time step continuity errors : sum local = 2.31143e-10, global = -1.34602e-19, cumulative = 3.15084e-19
ExecutionTime = 0.055028 s  ClockTime = 0 s

Courant Number mean: 0.0194161 max: 0.130809
Time = 0.34s

smoothSolver:  Solving for Ux, Initial residual = 0.00697857, Final residual = 3.51952e-11, No Iterations 3
smoothSolver:  Solving for Uy, Initial residual = 0.00794368, Final residual = 5.51582e-11, No Iterations 3
DICPCG:  Solving for p, Initial residual = 0.00623397, Final residual = 8.75143e-07, No Iterations 28
DICPCG:  Solving for p, Initial residual = 8.72405e-07, Final residual = 8.72405e-07, No Iterations 0
time step continuity errors : sum local = 2.24719e-10, global = -1.30782e-20, cumulative = 3.02005e-19
ExecutionTime = 0.055614 s  ClockTime = 0 s

Courant Number mean: 0.019674 max: 0.131798
Time = 0.35s

smoothSolver:  Solving for Ux, Initial residual = 0.00671441, Final residual = 3.40096e-11, No Iterations 3
smoothSolver:  Solving for Uy, Initial residual = 0.00765786, Final residual = 5.31571e-11, No Iterations 3
DICPCG:  Solving for p, Initial residual = 0.00615712, Final residual = 7.51443e-07, No Iterations 28
DICPCG:  Solving for p, Initial residual = 7.49198e-07, Final residual = 7.49198e-07, No Iterations 0
time step continuity errors : sum local = 1.94502e-10, global = -1.3849e-20, cumulative = 2.88156e-19
ExecutionTime = 0.0563 s  ClockTime = 0 s

Courant Number mean: 0.0199238 max: 0.132738
Time = 0.36s

smoothSolver:  Solving for Ux, Initial residual = 0.0064684, Final residual = 3.29348e-11, No Iterations 3
smoothSolver:  Solving for Uy, Initial residual = 0.00738475, Final residual = 5.12922e-11, No Iterations 3
DICPCG:  Solving for p, Initial residual = 0.0049755, Final residual = 7.40758e-07, No Iterations 28
DICPCG:  Solving for p, Initial residual = 7.38557e-07, Final residual = 7.38557e-07, No Iterations 0
time step continuity errors : sum local = 1.92429e-10, global = 1.04346e-19, cumulative = 3.92502e-19
ExecutionTime = 0.05688 s  ClockTime = 0 s

Courant Number mean: 0.0201659 max: 0.133632
Time = 0.37s

smoothSolver:  Solving for Ux, Initial residual = 0.0062358, Final residual = 3.1932e-11, No Iterations 3
smoothSolver:  Solving for Uy, Initial residual = 0.00713443, Final residual = 4.95418e-11, No Iterations 3
DICPCG:  Solving for p, Initial residual = 0.004637, Final residual = 7.07458e-07, No Iterations 28
DICPCG:  Solving for p, Initial residual = 7.05406e-07, Final residual = 7.05406e-07, No Iterations 0
time step continuity errors : sum local = 1.84596e-10, global = -1.28698e-19, cumulative = 2.63804e-19
ExecutionTime = 0.057489 s  ClockTime = 0 s

Courant Number mean: 0.0204006 max: 0.134483
Time = 0.38s

smoothSolver:  Solving for Ux, Initial residual = 0.00601457, Final residual = 3.09921e-11, No Iterations 3
smoothSolver:  Solving for Uy, Initial residual = 0.00690116, Final residual = 4.78942e-11, No Iterations 3
DICPCG:  Solving for p, Initial residual = 0.00453589, Final residual = 6.80649e-07, No Iterations 28
DICPCG:  Solving for p, Initial residual = 6.78748e-07, Final residual = 6.78748e-07, No Iterations 0
time step continuity errors : sum local = 1.78473e-10, global = 3.8972e-20, cumulative = 3.02776e-19
ExecutionTime = 0.058086 s  ClockTime = 0 s

Courant Number mean: 0.0206283 max: 0.135294
Time = 0.39s

smoothSolver:  Solving for Ux, Initial residual = 0.00580525, Final residual = 3.01021e-11, No Iterations 3
smoothSolver:  Solving for Uy, Initial residual = 0.00668189, Final residual = 4.63428e-11, No Iterations 3
DICPCG:  Solving for p, Initial residual = 0.00444612, Final residual = 6.51056e-07, No Iterations 28
DICPCG:  Solving for p, Initial residual = 6.49305e-07, Final residual = 6.49305e-07, No Iterations 0
time step continuity errors : sum local = 1.71545e-10, global = -4.57059e-20, cumulative = 2.5707e-19
ExecutionTime = 0.058608 s  ClockTime = 0 s

Courant Number mean: 0.0208505 max: 0.136068
Time = 0.4s

smoothSolver:  Solving for Ux, Initial residual = 0.00561314, Final residual = 2.92585e-11, No Iterations 3
smoothSolver:  Solving for Uy, Initial residual = 0.00647602, Final residual = 4.4884e-11, No Iterations 3
DICPCG:  Solving for p, Initial residual = 0.00440383, Final residual = 6.28069e-07, No Iterations 28
DICPCG:  Solving for p, Initial residual = 6.26434e-07, Final residual = 6.26434e-07, No Iterations 0
time step continuity errors : sum local = 1.66244e-10, global = 3.9387e-20, cumulative = 2.96457e-19
ExecutionTime = 0.05923 s  ClockTime = 0 s

Courant Number mean: 0.0210663 max: 0.136807
Time = 0.41s

smoothSolver:  Solving for Ux, Initial residual = 0.00543617, Final residual = 2.84616e-11, No Iterations 3
smoothSolver:  Solving for Uy, Initial residual = 0.00628228, Final residual = 4.35096e-11, No Iterations 3
DICPCG:  Solving for p, Initial residual = 0.00451943, Final residual = 6.09452e-07, No Iterations 28
DICPCG:  Solving for p, Initial residual = 6.07881e-07, Final residual = 6.07881e-07, No Iterations 0
time step continuity errors : sum local = 1.61952e-10, global = -8.75578e-20, cumulative = 2.089e-19
ExecutionTime = 0.059915 s  ClockTime = 0 s

Courant Number mean: 0.0212763 max: 0.137514
Time = 0.42s

smoothSolver:  Solving for Ux, Initial residual = 0.00527046, Final residual = 2.77038e-11, No Iterations 3
smoothSolver:  Solving for Uy, Initial residual = 0.00610001, Final residual = 4.2216e-11, No Iterations 3
DICPCG:  Solving for p, Initial residual = 0.00418651, Final residual = 5.57734e-07, No Iterations 28
DICPCG:  Solving for p, Initial residual = 5.5655e-07, Final residual = 5.5655e-07, No Iterations 0
time step continuity errors : sum local = 1.4951e-10, global = 7.37766e-20, cumulative = 2.82676e-19
ExecutionTime = 0.060528 s  ClockTime = 0 s

Courant Number mean: 0.0214814 max: 0.138192
Time = 0.43s

smoothSolver:  Solving for Ux, Initial residual = 0.00511458, Final residual = 2.69888e-11, No Iterations 3
smoothSolver:  Solving for Uy, Initial residual = 0.00592446, Final residual = 4.09759e-11, No Iterations 3
DICPCG:  Solving for p, Initial residual = 0.0042885, Final residual = 5.5181e-07, No Iterations 28
DICPCG:  Solving for p, Initial residual = 5.51021e-07, Final residual = 5.51021e-07, No Iterations 0
time step continuity errors : sum local = 1.488e-10, global = -1.05337e-19, cumulative = 1.77339e-19
ExecutionTime = 0.061035 s  ClockTime = 0 s

Courant Number mean: 0.0216869 max: 0.138841
Time = 0.44s

smoothSolver:  Solving for Ux, Initial residual = 0.00496553, Final residual = 2.63093e-11, No Iterations 3
smoothSolver:  Solving for Uy, Initial residual = 0.00576073, Final residual = 3.9797e-11, No Iterations 3
DICPCG:  Solving for p, Initial residual = 0.00373114, Final residual = 4.7473e-07, No Iterations 28
DICPCG:  Solving for p, Initial residual = 4.73866e-07, Final residual = 4.73866e-07, No Iterations 0
time step continuity errors : sum local = 1.27862e-10, global = 1.53144e-20, cumulative = 1.92653e-19
ExecutionTime = 0.061671 s  ClockTime = 0 s

Courant Number mean: 0.0218894 max: 0.139463
Time = 0.45s

smoothSolver:  Solving for Ux, Initial residual = 0.00482609, Final residual = 2.56472e-11, No Iterations 3
smoothSolver:  Solving for Uy, Initial residual = 0.00560497, Final residual = 3.86896e-11, No Iterations 3
DICPCG:  Solving for p, Initial residual = 0.00579092, Final residual = 4.70923e-07, No Iterations 28
DICPCG:  Solving for p, Initial residual = 4.70032e-07, Final residual = 4.70032e-07, No Iterations 0
time step continuity errors : sum local = 1.27513e-10, global = -1.29469e-19, cumulative = 6.31844e-20
ExecutionTime = 0.062289 s  ClockTime = 0 s

Courant Number mean: 0.0220917 max: 0.140061
Time = 0.46s

smoothSolver:  Solving for Ux, Initial residual = 0.00469687, Final residual = 2.5005e-11, No Iterations 3
smoothSolver:  Solving for Uy, Initial residual = 0.00545141, Final residual = 3.76253e-11, No Iterations 3
DICPCG:  Solving for p, Initial residual = 0.00440767, Final residual = 5.19157e-07, No Iterations 28
DICPCG:  Solving for p, Initial residual = 5.18245e-07, Final residual = 5.18245e-07, No Iterations 0
time step continuity errors : sum local = 1.40466e-10, global = 5.88857e-20, cumulative = 1.2207e-19
ExecutionTime = 0.062925 s  ClockTime = 0 s

Courant Number mean: 0.0222894 max: 0.140635
Time = 0.47s

smoothSolver:  Solving for Ux, Initial residual = 0.00456813, Final residual = 2.43996e-11, No Iterations 3
smoothSolver:  Solving for Uy, Initial residual = 0.00531636, Final residual = 3.66422e-11, No Iterations 3
DICPCG:  Solving for p, Initial residual = 0.00453762, Final residual = 6.64611e-07, No Iterations 28
DICPCG:  Solving for p, Initial residual = 6.64107e-07, Final residual = 6.64107e-07, No Iterations 0
time step continuity errors : sum local = 1.81606e-10, global = 6.36376e-20, cumulative = 1.85708e-19
ExecutionTime = 0.06353 s  ClockTime = 0 s

Courant Number mean: 0.0224827 max: 0.141187
Time = 0.48s

smoothSolver:  Solving for Ux, Initial residual = 0.00444746, Final residual = 2.38262e-11, No Iterations 3
smoothSolver:  Solving for Uy, Initial residual = 0.00518598, Final residual = 3.56848e-11, No Iterations 3
DICPCG:  Solving for p, Initial residual = 0.00377305, Final residual = 4.55971e-07, No Iterations 28
DICPCG:  Solving for p, Initial residual = 4.55224e-07, Final residual = 4.55224e-07, No Iterations 0
time step continuity errors : sum local = 1.24328e-10, global = -2.12944e-20, cumulative = 1.64413e-19
ExecutionTime = 0.063952 s  ClockTime = 0 s

Courant Number mean: 0.0226755 max: 0.141718
Time = 0.49s

smoothSolver:  Solving for Ux, Initial residual = 0.00433336, Final residual = 2.32616e-11, No Iterations 3
smoothSolver:  Solving for Uy, Initial residual = 0.00505678, Final residual = 3.47654e-11, No Iterations 3
DICPCG:  Solving for p, Initial residual = 0.0035446, Final residual = 4.39362e-07, No Iterations 28
DICPCG:  Solving for p, Initial residual = 4.38556e-07, Final residual = 4.38556e-07, No Iterations 0
time step continuity errors : sum local = 1.19621e-10, global = 1.113e-20, cumulative = 1.75543e-19
ExecutionTime = 0.064347 s  ClockTime = 0 s

Courant Number mean: 0.0228651 max: 0.142229
Time = 0.5s

smoothSolver:  Solving for Ux, Initial residual = 0.00422502, Final residual = 2.27261e-11, No Iterations 3
smoothSolver:  Solving for Uy, Initial residual = 0.00493862, Final residual = 3.39216e-11, No Iterations 3
DICPCG:  Solving for p, Initial residual = 0.00351563, Final residual = 4.2528e-07, No Iterations 28
DICPCG:  Solving for p, Initial residual = 4.24451e-07, Final residual = 4.24451e-07, No Iterations 0
time step continuity errors : sum local = 1.16449e-10, global = 2.04982e-21, cumulative = 1.77593e-19
ExecutionTime = 0.064732 s  ClockTime = 0 s

Courant Number mean: 0.0230509 max: 0.142722
Time = 0.51s

smoothSolver:  Solving for Ux, Initial residual = 0.00412064, Final residual = 2.22102e-11, No Iterations 3
smoothSolver:  Solving for Uy, Initial residual = 0.0048246, Final residual = 3.31069e-11, No Iterations 3
DICPCG:  Solving for p, Initial residual = 0.00344628, Final residual = 4.62369e-07, No Iterations 28
DICPCG:  Solving for p, Initial residual = 4.61703e-07, Final residual = 4.61703e-07, No Iterations 0
time step continuity errors : sum local = 1.2759e-10, global = 4.19408e-20, cumulative = 2.19534e-19
ExecutionTime = 0.065118 s  ClockTime = 0 s

Courant Number mean: 0.0232327 max: 0.143197
Time = 0.52s

smoothSolver:  Solving for Ux, Initial residual = 0.00402037, Final residual = 2.17095e-11, No Iterations 3
smoothSolver:  Solving for Uy, Initial residual = 0.00471278, Final residual = 3.23092e-11, No Iterations 3
DICPCG:  Solving for p, Initial residual = 0.00321628, Final residual = 4.38095e-07, No Iterations 28
DICPCG:  Solving for p, Initial residual = 4.37403e-07, Final residual = 4.37403e-07, No Iterations 0
time step continuity errors : sum local = 1.21216e-10, global = 3.37881e-20, cumulative = 2.53322e-19
ExecutionTime = 0.065507 s  ClockTime = 0 s

Courant Number mean: 0.0234106 max: 0.143657
Time = 0.53s

smoothSolver:  Solving for Ux, Initial residual = 0.00392447, Final residual = 2.12252e-11, No Iterations 3
smoothSolver:  Solving for Uy, Initial residual = 0.00460615, Final residual = 3.15456e-11, No Iterations 3
DICPCG:  Solving for p, Initial residual = 0.00350364, Final residual = 4.47818e-07, No Iterations 28
DICPCG:  Solving for p, Initial residual = 4.47126e-07, Final residual = 4.47126e-07, No Iterations 0
time step continuity errors : sum local = 1.2454e-10, global = 3.22635e-20, cumulative = 2.85586e-19
ExecutionTime = 0.065893 s  ClockTime = 0 s

Courant Number mean: 0.0235867 max: 0.144114
Time = 0.54s

smoothSolver:  Solving for Ux, Initial residual = 0.00383192, Final residual = 2.07566e-11, No Iterations 3
smoothSolver:  Solving for Uy, Initial residual = 0.00450248, Final residual = 3.07967e-11, No Iterations 3
DICPCG:  Solving for p, Initial residual = 0.00326913, Final residual = 4.85317e-07, No Iterations 28
DICPCG:  Solving for p, Initial residual = 4.84579e-07, Final residual = 4.84579e-07, No Iterations 0
time step continuity errors : sum local = 1.34687e-10, global = -8.48219e-20, cumulative = 2.00764e-19
ExecutionTime = 0.066267 s  ClockTime = 0 s

Courant Number mean: 0.0237619 max: 0.144555
Time = 0.55s

smoothSolver:  Solving for Ux, Initial residual = 0.00374311, Final residual = 2.03204e-11, No Iterations 3
smoothSolver:  Solving for Uy, Initial residual = 0.00440805, Final residual = 3.0124e-11, No Iterations 3
DICPCG:  Solving for p, Initial residual = 0.0029986, Final residual = 4.58339e-07, No Iterations 28
DICPCG:  Solving for p, Initial residual = 4.57669e-07, Final residual = 4.57669e-07, No Iterations 0
time step continuity errors : sum local = 1.27758e-10, global = -1.62791e-19, cumulative = 3.79725e-20
ExecutionTime = 0.066648 s  ClockTime = 0 s

Courant Number mean: 0.0239338 max: 0.144981
Time = 0.56s

smoothSolver:  Solving for Ux, Initial residual = 0.0036574, Final residual = 1.98983e-11, No Iterations 3
smoothSolver:  Solving for Uy, Initial residual = 0.0043169, Final residual = 2.94671e-11, No Iterations 3
DICPCG:  Solving for p, Initial residual = 0.00292474, Final residual = 4.39649e-07, No Iterations 28
DICPCG:  Solving for p, Initial residual = 4.39031e-07, Final residual = 4.39031e-07, No Iterations 0
time step continuity errors : sum local = 1.23034e-10, global = -3.83282e-21, cumulative = 3.41397e-20
ExecutionTime = 0.067017 s  ClockTime = 0 s

Courant Number mean: 0.0241023 max: 0.145394
Time = 0.57s

smoothSolver:  Solving for Ux, Initial residual = 0.00357539, Final residual = 1.9493e-11, No Iterations 3
smoothSolver:  Solving for Uy, Initial residual = 0.00422791, Final residual = 2.88261e-11, No Iterations 3
DICPCG:  Solving for p, Initial residual = 0.00286441, Final residual = 4.52557e-07, No Iterations 28
DICPCG:  Solving for p, Initial residual = 4.51939e-07, Final residual = 4.51939e-07, No Iterations 0
time step continuity errors : sum local = 1.2701e-10, global = 7.65718e-20, cumulative = 1.10711e-19
ExecutionTime = 0.067568 s  ClockTime = 0 s

Courant Number mean: 0.0242675 max: 0.145794
Time = 0.58s

smoothSolver:  Solving for Ux, Initial residual = 0.00349671, Final residual = 1.91001e-11, No Iterations 3
smoothSolver:  Solving for Uy, Initial residual = 0.00414185, Final residual = 2.82098e-11, No Iterations 3
DICPCG:  Solving for p, Initial residual = 0.00280818, Final residual = 4.53019e-07, No Iterations 28
DICPCG:  Solving for p, Initial residual = 4.52404e-07, Final residual = 4.52404e-07, No Iterations 0
time step continuity errors : sum local = 1.27489e-10, global = 1.41662e-19, cumulative = 2.52373e-19
ExecutionTime = 0.067946 s  ClockTime = 0 s

Courant Number mean: 0.0244296 max: 0.146182
Time = 0.59s

smoothSolver:  Solving for Ux, Initial residual = 0.00342032, Final residual = 1.87196e-11, No Iterations 3
smoothSolver:  Solving for Uy, Initial residual = 0.00405899, Final residual = 2.76163e-11, No Iterations 3
DICPCG:  Solving for p, Initial residual = 0.00275621, Final residual = 4.55821e-07, No Iterations 28
DICPCG:  Solving for p, Initial residual = 4.55218e-07, Final residual = 4.55218e-07, No Iterations 0
time step continuity errors : sum local = 1.28619e-10, global = 7.97693e-20, cumulative = 3.32143e-19
ExecutionTime = 0.068326 s  ClockTime = 0 s

Courant Number mean: 0.0245885 max: 0.146558
Time = 0.6s

smoothSolver:  Solving for Ux, Initial residual = 0.00334607, Final residual = 1.83523e-11, No Iterations 3
smoothSolver:  Solving for Uy, Initial residual = 0.00397943, Final residual = 2.70445e-11, No Iterations 3
DICPCG:  Solving for p, Initial residual = 0.00270588, Final residual = 4.54152e-07, No Iterations 28
DICPCG:  Solving for p, Initial residual = 4.5356e-07, Final residual = 4.5356e-07, No Iterations 0
time step continuity errors : sum local = 1.28497e-10, global = 1.98799e-20, cumulative = 3.52023e-19
ExecutionTime = 0.068747 s  ClockTime = 0 s

Courant Number mean: 0.0247446 max: 0.146923
Time = 0.61s

smoothSolver:  Solving for Ux, Initial residual = 0.00327405, Final residual = 9.87763e-09, No Iterations 2
smoothSolver:  Solving for Uy, Initial residual = 0.00390265, Final residual = 2.64926e-11, No Iterations 3
DICPCG:  Solving for p, Initial residual = 0.00291326, Final residual = 4.66078e-07, No Iterations 28
DICPCG:  Solving for p, Initial residual = 4.65473e-07, Final residual = 4.65473e-07, No Iterations 0
time step continuity errors : sum local = 1.32283e-10, global = 6.01986e-20, cumulative = 4.12221e-19
ExecutionTime = 0.069259 s  ClockTime = 0 s

Courant Number mean: 0.024898 max: 0.147278
Time = 0.62s

smoothSolver:  Solving for Ux, Initial residual = 0.0032043, Final residual = 9.68398e-09, No Iterations 2
smoothSolver:  Solving for Uy, Initial residual = 0.00382763, Final residual = 2.59564e-11, No Iterations 3
DICPCG:  Solving for p, Initial residual = 0.00384736, Final residual = 7.55551e-07, No Iterations 27
DICPCG:  Solving for p, Initial residual = 7.54645e-07, Final residual = 7.54645e-07, No Iterations 0
time step continuity errors : sum local = 2.14533e-10, global = -4.20467e-20, cumulative = 3.70175e-19
ExecutionTime = 0.069743 s  ClockTime = 0 s

Courant Number mean: 0.0250509 max: 0.147623
Time = 0.63s

smoothSolver:  Solving for Ux, Initial residual = 0.00313676, Final residual = 9.49257e-09, No Iterations 2
smoothSolver:  Solving for Uy, Initial residual = 0.00375035, Final residual = 2.54102e-11, No Iterations 3
DICPCG:  Solving for p, Initial residual = 0.00413378, Final residual = 8.03487e-07, No Iterations 28
DICPCG:  Solving for p, Initial residual = 8.02572e-07, Final residual = 8.02572e-07, No Iterations 0
time step continuity errors : sum local = 2.28265e-10, global = -1.24277e-19, cumulative = 2.45898e-19
ExecutionTime = 0.07032 s  ClockTime = 0 s

Courant Number mean: 0.0252015 max: 0.147958
Time = 0.64s

smoothSolver:  Solving for Ux, Initial residual = 0.00307123, Final residual = 9.31867e-09, No Iterations 2
smoothSolver:  Solving for Uy, Initial residual = 0.00369125, Final residual = 2.49732e-11, No Iterations 3
DICPCG:  Solving for p, Initial residual = 0.00269996, Final residual = 4.85646e-07, No Iterations 28
DICPCG:  Solving for p, Initial residual = 4.85102e-07, Final residual = 4.85102e-07, No Iterations 0
time step continuity errors : sum local = 1.38478e-10, global = 8.55884e-20, cumulative = 3.31486e-19
ExecutionTime = 0.070782 s  ClockTime = 0 s

Courant Number mean: 0.0253499 max: 0.148284
Time = 0.65s

smoothSolver:  Solving for Ux, Initial residual = 0.00300783, Final residual = 9.1448e-09, No Iterations 2
smoothSolver:  Solving for Uy, Initial residual = 0.00362659, Final residual = 2.45071e-11, No Iterations 3
DICPCG:  Solving for p, Initial residual = 0.0024785, Final residual = 4.45773e-07, No Iterations 28
DICPCG:  Solving for p, Initial residual = 4.45286e-07, Final residual = 4.45286e-07, No Iterations 0
time step continuity errors : sum local = 1.27506e-10, global = 1.31553e-19, cumulative = 4.63039e-19
ExecutionTime = 0.071411 s  ClockTime = 0 s

Courant Number mean: 0.0254967 max: 0.148601
Time = 0.66s

smoothSolver:  Solving for Ux, Initial residual = 0.00294634, Final residual = 8.9769e-09, No Iterations 2
smoothSolver:  Solving for Uy, Initial residual = 0.00356221, Final residual = 2.40454e-11, No Iterations 3
DICPCG:  Solving for p, Initial residual = 0.00244069, Final residual = 4.43914e-07, No Iterations 28
DICPCG:  Solving for p, Initial residual = 4.43442e-07, Final residual = 4.43442e-07, No Iterations 0
time step continuity errors : sum local = 1.27269e-10, global = 1.91802e-19, cumulative = 6.54841e-19
ExecutionTime = 0.071874 s  ClockTime = 0 s

Courant Number mean: 0.025641 max: 0.14891
Time = 0.67s

smoothSolver:  Solving for Ux, Initial residual = 0.00288665, Final residual = 8.81399e-09, No Iterations 2
smoothSolver:  Solving for Uy, Initial residual = 0.00349953, Final residual = 2.35974e-11, No Iterations 3
DICPCG:  Solving for p, Initial residual = 0.00240178, Final residual = 4.44615e-07, No Iterations 28
DICPCG:  Solving for p, Initial residual = 4.44156e-07, Final residual = 4.44156e-07, No Iterations 0
time step continuity errors : sum local = 1.27706e-10, global = 9.57994e-20, cumulative = 7.50641e-19
ExecutionTime = 0.072335 s  ClockTime = 0 s

Courant Number mean: 0.0257827 max: 0.149211
Time = 0.68s

smoothSolver:  Solving for Ux, Initial residual = 0.00282903, Final residual = 8.65577e-09, No Iterations 2
smoothSolver:  Solving for Uy, Initial residual = 0.00343888, Final residual = 2.31641e-11, No Iterations 3
DICPCG:  Solving for p, Initial residual = 0.00236571, Final residual = 4.44782e-07, No Iterations 28
DICPCG:  Solving for p, Initial residual = 4.44338e-07, Final residual = 4.44338e-07, No Iterations 0
time step continuity errors : sum local = 1.27976e-10, global = -2.65121e-20, cumulative = 7.24128e-19
ExecutionTime = 0.072761 s  ClockTime = 0 s

Courant Number mean: 0.0259221 max: 0.149504
Time = 0.69s

smoothSolver:  Solving for Ux, Initial residual = 0.00277331, Final residual = 8.50267e-09, No Iterations 2
smoothSolver:  Solving for Uy, Initial residual = 0.00338028, Final residual = 2.27453e-11, No Iterations 3
DICPCG:  Solving for p, Initial residual = 0.00235857, Final residual = 4.42191e-07, No Iterations 28
DICPCG:  Solving for p, Initial residual = 4.41762e-07, Final residual = 4.41762e-07, No Iterations 0
time step continuity errors : sum local = 1.27454e-10, global = -5.61244e-20, cumulative = 6.68004e-19
ExecutionTime = 0.073227 s  ClockTime = 0 s

Courant Number mean: 0.0260591 max: 0.14979
Time = 0.7s

smoothSolver:  Solving for Ux, Initial residual = 0.00271914, Final residual = 8.35397e-09, No Iterations 2
smoothSolver:  Solving for Uy, Initial residual = 0.00332364, Final residual = 2.23405e-11, No Iterations 3
DICPCG:  Solving for p, Initial residual = 0.00233566, Final residual = 4.58975e-07, No Iterations 28
DICPCG:  Solving for p, Initial residual = 4.58546e-07, Final residual = 4.58546e-07, No Iterations 0
time step continuity errors : sum local = 1.32477e-10, global = 7.92399e-20, cumulative = 7.47244e-19
ExecutionTime = 0.073771 s  ClockTime = 0 s

Courant Number mean: 0.0261939 max: 0.150068
Time = 0.71s

smoothSolver:  Solving for Ux, Initial residual = 0.00266729, Final residual = 8.20911e-09, No Iterations 2
smoothSolver:  Solving for Uy, Initial residual = 0.00326889, Final residual = 2.19496e-11, No Iterations 3
DICPCG:  Solving for p, Initial residual = 0.00241724, Final residual = 4.55093e-07, No Iterations 28
DICPCG:  Solving for p, Initial residual = 4.54681e-07, Final residual = 4.54681e-07, No Iterations 0
time step continuity errors : sum local = 1.31596e-10, global = -7.59873e-20, cumulative = 6.71257e-19
ExecutionTime = 0.074387 s  ClockTime = 0 s

Courant Number mean: 0.0263266 max: 0.150339
Time = 0.72s

smoothSolver:  Solving for Ux, Initial residual = 0.00261885, Final residual = 8.06998e-09, No Iterations 2
smoothSolver:  Solving for Uy, Initial residual = 0.00321642, Final residual = 2.15731e-11, No Iterations 3
DICPCG:  Solving for p, Initial residual = 0.0023878, Final residual = 4.85287e-07, No Iterations 28
DICPCG:  Solving for p, Initial residual = 4.84859e-07, Final residual = 4.84859e-07, No Iterations 0
time step continuity errors : sum local = 1.4063e-10, global = 3.05017e-20, cumulative = 7.01758e-19
ExecutionTime = 0.074902 s  ClockTime = 0 s

Courant Number mean: 0.0264572 max: 0.150604
Time = 0.73s

smoothSolver:  Solving for Ux, Initial residual = 0.00257304, Final residual = 7.9334e-09, No Iterations 2
smoothSolver:  Solving for Uy, Initial residual = 0.00316376, Final residual = 2.12032e-11, No Iterations 3
DICPCG:  Solving for p, Initial residual = 0.00229602, Final residual = 4.61548e-07, No Iterations 28
DICPCG:  Solving for p, Initial residual = 4.61153e-07, Final residual = 4.61153e-07, No Iterations 0
time step continuity errors : sum local = 1.33942e-10, global = 7.09814e-21, cumulative = 7.08856e-19
ExecutionTime = 0.075465 s  ClockTime = 0 s

Courant Number mean: 0.0265858 max: 0.150862
Time = 0.74s

smoothSolver:  Solving for Ux, Initial residual = 0.00252934, Final residual = 7.80045e-09, No Iterations 2
smoothSolver:  Solving for Uy, Initial residual = 0.00311307, Final residual = 2.08462e-11, No Iterations 3
DICPCG:  Solving for p, Initial residual = 0.00217669, Final residual = 4.33688e-07, No Iterations 28
DICPCG:  Solving for p, Initial residual = 4.3333e-07, Final residual = 4.3333e-07, No Iterations 0
time step continuity errors : sum local = 1.26022e-10, global = -2.71051e-22, cumulative = 7.08585e-19
ExecutionTime = 0.076167 s  ClockTime = 0 s

Courant Number mean: 0.0267123 max: 0.151115
Time = 0.75s

smoothSolver:  Solving for Ux, Initial residual = 0.0024867, Final residual = 7.67101e-09, No Iterations 2
smoothSolver:  Solving for Uy, Initial residual = 0.00306444, Final residual = 2.05019e-11, No Iterations 3
DICPCG:  Solving for p, Initial residual = 0.00216376, Final residual = 4.31372e-07, No Iterations 28
DICPCG:  Solving for p, Initial residual = 4.31025e-07, Final residual = 4.31025e-07, No Iterations 0
time step continuity errors : sum local = 1.25531e-10, global = 1.65764e-20, cumulative = 7.25162e-19
ExecutionTime = 0.076623 s  ClockTime = 0 s

Courant Number mean: 0.026837 max: 0.151361
Time = 0.76s

smoothSolver:  Solving for Ux, Initial residual = 0.00244585, Final residual = 7.54462e-09, No Iterations 2
smoothSolver:  Solving for Uy, Initial residual = 0.0030174, Final residual = 2.01689e-11, No Iterations 3
DICPCG:  Solving for p, Initial residual = 0.00216865, Final residual = 4.32346e-07, No Iterations 28
DICPCG:  Solving for p, Initial residual = 4.3201e-07, Final residual = 4.3201e-07, No Iterations 0
time step continuity errors : sum local = 1.25999e-10, global = -8.8426e-20, cumulative = 6.36736e-19
ExecutionTime = 0.077097 s  ClockTime = 0 s

Courant Number mean: 0.0269599 max: 0.151602
Time = 0.77s

smoothSolver:  Solving for Ux, Initial residual = 0.00240589, Final residual = 7.423e-09, No Iterations 2
smoothSolver:  Solving for Uy, Initial residual = 0.00297192, Final residual = 1.98454e-11, No Iterations 3
DICPCG:  Solving for p, Initial residual = 0.00224259, Final residual = 4.37035e-07, No Iterations 28
DICPCG:  Solving for p, Initial residual = 4.36706e-07, Final residual = 4.36706e-07, No Iterations 0
time step continuity errors : sum local = 1.27564e-10, global = 4.7256e-20, cumulative = 6.83992e-19
ExecutionTime = 0.077513 s  ClockTime = 0 s

Courant Number mean: 0.0270809 max: 0.151837
Time = 0.78s

smoothSolver:  Solving for Ux, Initial residual = 0.00236682, Final residual = 7.30448e-09, No Iterations 2
smoothSolver:  Solving for Uy, Initial residual = 0.00292804, Final residual = 1.95311e-11, No Iterations 3
DICPCG:  Solving for p, Initial residual = 0.00252155, Final residual = 4.89304e-07, No Iterations 28
DICPCG:  Solving for p, Initial residual = 4.88947e-07, Final residual = 4.88947e-07, No Iterations 0
time step continuity errors : sum local = 1.43094e-10, global = 2.34353e-19, cumulative = 9.18345e-19
ExecutionTime = 0.077959 s  ClockTime = 0 s

Courant Number mean: 0.0272001 max: 0.152067
Time = 0.79s

smoothSolver:  Solving for Ux, Initial residual = 0.00232909, Final residual = 7.18866e-09, No Iterations 2
smoothSolver:  Solving for Uy, Initial residual = 0.00288625, Final residual = 1.92298e-11, No Iterations 3
DICPCG:  Solving for p, Initial residual = 0.00285175, Final residual = 5.53566e-07, No Iterations 28
DICPCG:  Solving for p, Initial residual = 5.53174e-07, Final residual = 5.53174e-07, No Iterations 0
time step continuity errors : sum local = 1.62144e-10, global = 9.88742e-20, cumulative = 1.01722e-18
ExecutionTime = 0.078532 s  ClockTime = 0 s

Courant Number mean: 0.0273196 max: 0.152292
Time = 0.8s

smoothSolver:  Solving for Ux, Initial residual = 0.00229248, Final residual = 7.07655e-09, No Iterations 2
smoothSolver:  Solving for Uy, Initial residual = 0.00284646, Final residual = 1.89407e-11, No Iterations 3
DICPCG:  Solving for p, Initial residual = 0.0035933, Final residual = 6.46746e-07, No Iterations 26
DICPCG:  Solving for p, Initial residual = 6.46318e-07, Final residual = 6.46318e-07, No Iterations 0
time step continuity errors : sum local = 1.9134e-10, global = -1.49628e-19, cumulative = 8.6759e-19
ExecutionTime = 0.078999 s  ClockTime = 0 s

Courant Number mean: 0.0274369 max: 0.152512
Time = 0.81s

smoothSolver:  Solving for Ux, Initial residual = 0.00225791, Final residual = 6.96967e-09, No Iterations 2
smoothSolver:  Solving for Uy, Initial residual = 0.00279889, Final residual = 9.85381e-09, No Iterations 2
DICPCG:  Solving for p, Initial residual = 0.00225299, Final residual = 9.53902e-07, No Iterations 27
DICPCG:  Solving for p, Initial residual = 9.53258e-07, Final residual = 9.53258e-07, No Iterations 0
time step continuity errors : sum local = 2.81119e-10, global = -5.33419e-20, cumulative = 8.14249e-19
ExecutionTime = 0.079337 s  ClockTime = 0 s

Courant Number mean: 0.0275525 max: 0.152727
Time = 0.82s

smoothSolver:  Solving for Ux, Initial residual = 0.00222328, Final residual = 6.86999e-09, No Iterations 2
smoothSolver:  Solving for Uy, Initial residual = 0.00275789, Final residual = 9.70347e-09, No Iterations 2
DICPCG:  Solving for p, Initial residual = 0.00197225, Final residual = 4.22421e-07, No Iterations 28
DICPCG:  Solving for p, Initial residual = 4.22143e-07, Final residual = 4.22143e-07, No Iterations 0
time step continuity errors : sum local = 1.24054e-10, global = -1.28711e-19, cumulative = 6.85538e-19
ExecutionTime = 0.079904 s  ClockTime = 0 s

Courant Number mean: 0.0276663 max: 0.152937
Time = 0.83s

smoothSolver:  Solving for Ux, Initial residual = 0.00218965, Final residual = 6.77359e-09, No Iterations 2
smoothSolver:  Solving for Uy, Initial residual = 0.00271933, Final residual = 9.56065e-09, No Iterations 2
DICPCG:  Solving for p, Initial residual = 0.00194845, Final residual = 4.20271e-07, No Iterations 28
DICPCG:  Solving for p, Initial residual = 4.20001e-07, Final residual = 4.20001e-07, No Iterations 0
time step continuity errors : sum local = 1.23568e-10, global = -1.42344e-19, cumulative = 5.43194e-19
ExecutionTime = 0.080328 s  ClockTime = 0 s

Courant Number mean: 0.0277785 max: 0.153143
Time = 0.84s

smoothSolver:  Solving for Ux, Initial residual = 0.00215709, Final residual = 6.6801e-09, No Iterations 2
smoothSolver:  Solving for Uy, Initial residual = 0.00268188, Final residual = 9.4219e-09, No Iterations 2
DICPCG:  Solving for p, Initial residual = 0.00193705, Final residual = 4.18185e-07, No Iterations 28
DICPCG:  Solving for p, Initial residual = 4.17921e-07, Final residual = 4.17921e-07, No Iterations 0
time step continuity errors : sum local = 1.23106e-10, global = -6.90671e-20, cumulative = 4.74127e-19
ExecutionTime = 0.080738 s  ClockTime = 0 s

Courant Number mean: 0.0278892 max: 0.153344
Time = 0.85s

smoothSolver:  Solving for Ux, Initial residual = 0.00212531, Final residual = 6.58909e-09, No Iterations 2
smoothSolver:  Solving for Uy, Initial residual = 0.00264524, Final residual = 9.28623e-09, No Iterations 2
DICPCG:  Solving for p, Initial residual = 0.00191683, Final residual = 4.03819e-07, No Iterations 28
DICPCG:  Solving for p, Initial residual = 4.03569e-07, Final residual = 4.03569e-07, No Iterations 0
time step continuity errors : sum local = 1.19036e-10, global = 7.14769e-20, cumulative = 5.45604e-19
ExecutionTime = 0.08112 s  ClockTime = 0 s

Courant Number mean: 0.0279983 max: 0.153541
Time = 0.86s

smoothSolver:  Solving for Ux, Initial residual = 0.00209425, Final residual = 6.50076e-09, No Iterations 2
smoothSolver:  Solving for Uy, Initial residual = 0.00260938, Final residual = 9.15375e-09, No Iterations 2
DICPCG:  Solving for p, Initial residual = 0.00189141, Final residual = 9.97125e-07, No Iterations 27
DICPCG:  Solving for p, Initial residual = 9.96515e-07, Final residual = 9.96515e-07, No Iterations 0
time step continuity errors : sum local = 2.95351e-10, global = 3.00231e-20, cumulative = 5.75627e-19
ExecutionTime = 0.08152 s  ClockTime = 0 s

Courant Number mean: 0.0281058 max: 0.153734
Time = 0.87s

smoothSolver:  Solving for Ux, Initial residual = 0.00206387, Final residual = 6.41443e-09, No Iterations 2
smoothSolver:  Solving for Uy, Initial residual = 0.00257433, Final residual = 9.02447e-09, No Iterations 2
DICPCG:  Solving for p, Initial residual = 0.00193738, Final residual = 4.13661e-07, No Iterations 28
DICPCG:  Solving for p, Initial residual = 4.13416e-07, Final residual = 4.13416e-07, No Iterations 0
time step continuity errors : sum local = 1.22192e-10, global = 2.2781e-20, cumulative = 5.98408e-19
ExecutionTime = 0.08191 s  ClockTime = 0 s

Courant Number mean: 0.0282119 max: 0.153923
Time = 0.88s

smoothSolver:  Solving for Ux, Initial residual = 0.00203425, Final residual = 6.33133e-09, No Iterations 2
smoothSolver:  Solving for Uy, Initial residual = 0.0025404, Final residual = 8.89901e-09, No Iterations 2
DICPCG:  Solving for p, Initial residual = 0.0018845, Final residual = 9.84821e-07, No Iterations 27
DICPCG:  Solving for p, Initial residual = 9.84241e-07, Final residual = 9.84241e-07, No Iterations 0
time step continuity errors : sum local = 2.92382e-10, global = -3.17468e-20, cumulative = 5.66661e-19
ExecutionTime = 0.0823 s  ClockTime = 0 s

Courant Number mean: 0.0283168 max: 0.154108
Time = 0.89s

smoothSolver:  Solving for Ux, Initial residual = 0.00200577, Final residual = 6.24986e-09, No Iterations 2
smoothSolver:  Solving for Uy, Initial residual = 0.00250703, Final residual = 8.77597e-09, No Iterations 2
DICPCG:  Solving for p, Initial residual = 0.00206966, Final residual = 9.05551e-07, No Iterations 27
DICPCG:  Solving for p, Initial residual = 9.05018e-07, Final residual = 9.05018e-07, No Iterations 0
time step continuity errors : sum local = 2.69338e-10, global = -4.8823e-20, cumulative = 5.17838e-19
ExecutionTime = 0.082683 s  ClockTime = 0 s

Courant Number mean: 0.0284203 max: 0.15429
Time = 0.9s

smoothSolver:  Solving for Ux, Initial residual = 0.00197769, Final residual = 6.1698e-09, No Iterations 2
smoothSolver:  Solving for Uy, Initial residual = 0.00247278, Final residual = 8.65097e-09, No Iterations 2
DICPCG:  Solving for p, Initial residual = 0.00184378, Final residual = 9.4267e-07, No Iterations 27
DICPCG:  Solving for p, Initial residual = 9.42127e-07, Final residual = 9.42127e-07, No Iterations 0
time step continuity errors : sum local = 2.80513e-10, global = 1.13502e-20, cumulative = 5.29188e-19
ExecutionTime = 0.083079 s  ClockTime = 0 s

Courant Number mean: 0.0285226 max: 0.154468
Time = 0.91s

smoothSolver:  Solving for Ux, Initial residual = 0.00195034, Final residual = 6.09235e-09, No Iterations 2
smoothSolver:  Solving for Uy, Initial residual = 0.00244042, Final residual = 8.53204e-09, No Iterations 2
DICPCG:  Solving for p, Initial residual = 0.00175107, Final residual = 8.91961e-07, No Iterations 27
DICPCG:  Solving for p, Initial residual = 8.91451e-07, Final residual = 8.91451e-07, No Iterations 0
time step continuity errors : sum local = 2.65803e-10, global = 8.06778e-20, cumulative = 6.09866e-19
ExecutionTime = 0.083473 s  ClockTime = 0 s

Courant Number mean: 0.0286239 max: 0.154642
Time = 0.92s

smoothSolver:  Solving for Ux, Initial residual = 0.00192357, Final residual = 6.01736e-09, No Iterations 2
smoothSolver:  Solving for Uy, Initial residual = 0.00240924, Final residual = 8.41719e-09, No Iterations 2
DICPCG:  Solving for p, Initial residual = 0.00175301, Final residual = 8.87453e-07, No Iterations 27
DICPCG:  Solving for p, Initial residual = 8.86957e-07, Final residual = 8.86957e-07, No Iterations 0
time step continuity errors : sum local = 2.64717e-10, global = 2.388e-20, cumulative = 6.33746e-19
ExecutionTime = 0.083844 s  ClockTime = 0 s

Courant Number mean: 0.0287239 max: 0.154813
Time = 0.93s

smoothSolver:  Solving for Ux, Initial residual = 0.0018973, Final residual = 5.94468e-09, No Iterations 2
smoothSolver:  Solving for Uy, Initial residual = 0.00237885, Final residual = 8.30538e-09, No Iterations 2
DICPCG:  Solving for p, Initial residual = 0.00171222, Final residual = 8.7328e-07, No Iterations 27
DICPCG:  Solving for p, Initial residual = 8.72805e-07, Final residual = 8.72805e-07, No Iterations 0
time step continuity errors : sum local = 2.60792e-10, global = -4.11616e-20, cumulative = 5.92584e-19
ExecutionTime = 0.084245 s  ClockTime = 0 s

Courant Number mean: 0.0288226 max: 0.154981
Time = 0.94s

smoothSolver:  Solving for Ux, Initial residual = 0.00187154, Final residual = 5.87374e-09, No Iterations 2
smoothSolver:  Solving for Uy, Initial residual = 0.00234903, Final residual = 8.19593e-09, No Iterations 2
DICPCG:  Solving for p, Initial residual = 0.0016922, Final residual = 8.60449e-07, No Iterations 27
DICPCG:  Solving for p, Initial residual = 8.59993e-07, Final residual = 8.59993e-07, No Iterations 0
time step continuity errors : sum local = 2.57237e-10, global = 2.68086e-20, cumulative = 6.19393e-19
ExecutionTime = 0.084633 s  ClockTime = 0 s

Courant Number mean: 0.0289202 max: 0.155145
Time = 0.95s

smoothSolver:  Solving for Ux, Initial residual = 0.00184629, Final residual = 5.80408e-09, No Iterations 2
smoothSolver:  Solving for Uy, Initial residual = 0.00231979, Final residual = 8.08881e-09, No Iterations 2
DICPCG:  Solving for p, Initial residual = 0.00167152, Final residual = 8.46108e-07, No Iterations 27
DICPCG:  Solving for p, Initial residual = 8.45646e-07, Final residual = 8.45646e-07, No Iterations 0
time step continuity errors : sum local = 2.53223e-10, global = -3.3731e-20, cumulative = 5.85662e-19
ExecutionTime = 0.085032 s  ClockTime = 0 s

Courant Number mean: 0.0290166 max: 0.155306
Time = 0.96s

smoothSolver:  Solving for Ux, Initial residual = 0.00182159, Final residual = 5.73588e-09, No Iterations 2
smoothSolver:  Solving for Uy, Initial residual = 0.00229113, Final residual = 7.984e-09, No Iterations 2
DICPCG:  Solving for p, Initial residual = 0.00165288, Final residual = 8.32381e-07, No Iterations 27
DICPCG:  Solving for p, Initial residual = 8.31935e-07, Final residual = 8.31935e-07, No Iterations 0
time step continuity errors : sum local = 2.49384e-10, global = 1.30612e-20, cumulative = 5.98723e-19
ExecutionTime = 0.085655 s  ClockTime = 0 s

Courant Number mean: 0.0291116 max: 0.155464
Time = 0.97s

smoothSolver:  Solving for Ux, Initial residual = 0.00179743, Final residual = 5.6693e-09, No Iterations 2
smoothSolver:  Solving for Uy, Initial residual = 0.00226302, Final residual = 7.88136e-09, No Iterations 2
DICPCG:  Solving for p, Initial residual = 0.00163441, Final residual = 8.18565e-07, No Iterations 27
DICPCG:  Solving for p, Initial residual = 8.18137e-07, Final residual = 8.18137e-07, No Iterations 0
time step continuity errors : sum local = 2.45505e-10, global = 2.16823e-19, cumulative = 8.15547e-19
ExecutionTime = 0.086122 s  ClockTime = 0 s

Courant Number mean: 0.0292055 max: 0.15562
Time = 0.98s

smoothSolver:  Solving for Ux, Initial residual = 0.00177399, Final residual = 5.60387e-09, No Iterations 2
smoothSolver:  Solving for Uy, Initial residual = 0.00223543, Final residual = 7.78081e-09, No Iterations 2
DICPCG:  Solving for p, Initial residual = 0.00161651, Final residual = 8.0499e-07, No Iterations 27
DICPCG:  Solving for p, Initial residual = 8.04579e-07, Final residual = 8.04579e-07, No Iterations 0
time step continuity errors : sum local = 2.41684e-10, global = 7.29317e-20, cumulative = 8.88478e-19
ExecutionTime = 0.086567 s  ClockTime = 0 s

Courant Number mean: 0.0292981 max: 0.155772
Time = 0.99s

smoothSolver:  Solving for Ux, Initial residual = 0.00175099, Final residual = 5.53957e-09, No Iterations 2
smoothSolver:  Solving for Uy, Initial residual = 0.00220839, Final residual = 7.68244e-09, No Iterations 2
DICPCG:  Solving for p, Initial residual = 0.00160067, Final residual = 7.91717e-07, No Iterations 27
DICPCG:  Solving for p, Initial residual = 7.91322e-07, Final residual = 7.91322e-07, No Iterations 0
time step continuity errors : sum local = 2.37939e-10, global = 1.12547e-19, cumulative = 1.00103e-18
ExecutionTime = 0.087006 s  ClockTime = 0 s

Courant Number mean: 0.0293896 max: 0.155921
Time = 1s

smoothSolver:  Solving for Ux, Initial residual = 0.00172846, Final residual = 5.47628e-09, No Iterations 2
smoothSolver:  Solving for Uy, Initial residual = 0.00218191, Final residual = 7.5862e-09, No Iterations 2
DICPCG:  Solving for p, Initial residual = 0.0015848, Final residual = 7.78734e-07, No Iterations 27
DICPCG:  Solving for p, Initial residual = 7.78354e-07, Final residual = 7.78354e-07, No Iterations 0
time step continuity errors : sum local = 2.34268e-10, global = 8.0286e-20, cumulative = 1.08131e-18
ExecutionTime = 0.088422 s  ClockTime = 0 s

Courant Number mean: 0.0294799 max: 0.156068
Time = 1.01s

smoothSolver:  Solving for Ux, Initial residual = 0.00170631, Final residual = 5.4139e-09, No Iterations 2
smoothSolver:  Solving for Uy, Initial residual = 0.00215595, Final residual = 7.49202e-09, No Iterations 2
DICPCG:  Solving for p, Initial residual = 0.00157013, Final residual = 7.6586e-07, No Iterations 27
DICPCG:  Solving for p, Initial residual = 7.65496e-07, Final residual = 7.65496e-07, No Iterations 0
time step continuity errors : sum local = 2.30618e-10, global = 1.16327e-19, cumulative = 1.19764e-18
ExecutionTime = 0.088868 s  ClockTime = 0 s

Courant Number mean: 0.0295691 max: 0.156212
Time = 1.02s

smoothSolver:  Solving for Ux, Initial residual = 0.00168462, Final residual = 5.3525e-09, No Iterations 2
smoothSolver:  Solving for Uy, Initial residual = 0.00213051, Final residual = 7.39985e-09, No Iterations 2
DICPCG:  Solving for p, Initial residual = 0.00155652, Final residual = 7.53163e-07, No Iterations 27
DICPCG:  Solving for p, Initial residual = 7.52813e-07, Final residual = 7.52813e-07, No Iterations 0
time step continuity errors : sum local = 2.27009e-10, global = -1.34659e-19, cumulative = 1.06298e-18
ExecutionTime = 0.089253 s  ClockTime = 0 s

Courant Number mean: 0.0296572 max: 0.156353
Time = 1.03s

smoothSolver:  Solving for Ux, Initial residual = 0.00166339, Final residual = 5.29215e-09, No Iterations 2
smoothSolver:  Solving for Uy, Initial residual = 0.00210556, Final residual = 7.30974e-09, No Iterations 2
DICPCG:  Solving for p, Initial residual = 0.00154516, Final residual = 7.40946e-07, No Iterations 27
DICPCG:  Solving for p, Initial residual = 7.4061e-07, Final residual = 7.4061e-07, No Iterations 0
time step continuity errors : sum local = 2.23536e-10, global = 2.18132e-20, cumulative = 1.08479e-18
ExecutionTime = 0.089616 s  ClockTime = 0 s

Courant Number mean: 0.0297441 max: 0.156492
Time = 1.04s

smoothSolver:  Solving for Ux, Initial residual = 0.00164256, Final residual = 5.2335e-09, No Iterations 2
smoothSolver:  Solving for Uy, Initial residual = 0.00208111, Final residual = 7.22149e-09, No Iterations 2
DICPCG:  Solving for p, Initial residual = 0.00154007, Final residual = 7.32379e-07, No Iterations 27
DICPCG:  Solving for p, Initial residual = 7.32047e-07, Final residual = 7.32047e-07, No Iterations 0
time step continuity errors : sum local = 2.21158e-10, global = -4.06703e-20, cumulative = 1.04412e-18
ExecutionTime = 0.089978 s  ClockTime = 0 s

Courant Number mean: 0.0298301 max: 0.156629
Time = 1.05s

smoothSolver:  Solving for Ux, Initial residual = 0.00162222, Final residual = 5.17581e-09, No Iterations 2
smoothSolver:  Solving for Uy, Initial residual = 0.00205709, Final residual = 7.13498e-09, No Iterations 2
DICPCG:  Solving for p, Initial residual = 0.00153184, Final residual = 7.1708e-07, No Iterations 27
DICPCG:  Solving for p, Initial residual = 7.16751e-07, Final residual = 7.16751e-07, No Iterations 0
time step continuity errors : sum local = 2.16702e-10, global = 5.40195e-20, cumulative = 1.09814e-18
ExecutionTime = 0.090371 s  ClockTime = 0 s

Courant Number mean: 0.029915 max: 0.156763
Time = 1.06s

smoothSolver:  Solving for Ux, Initial residual = 0.00160235, Final residual = 5.11905e-09, No Iterations 2
smoothSolver:  Solving for Uy, Initial residual = 0.00203352, Final residual = 7.0502e-09, No Iterations 2
DICPCG:  Solving for p, Initial residual = 0.00150044, Final residual = 7.03006e-07, No Iterations 27
DICPCG:  Solving for p, Initial residual = 7.0269e-07, Final residual = 7.0269e-07, No Iterations 0
time step continuity errors : sum local = 2.12665e-10, global = -2.48621e-19, cumulative = 8.49521e-19
ExecutionTime = 0.090742 s  ClockTime = 0 s

Courant Number mean: 0.0299989 max: 0.156894
Time = 1.07s

smoothSolver:  Solving for Ux, Initial residual = 0.00158291, Final residual = 5.06319e-09, No Iterations 2
smoothSolver:  Solving for Uy, Initial residual = 0.00201046, Final residual = 6.96712e-09, No Iterations 2
DICPCG:  Solving for p, Initial residual = 0.00148299, Final residual = 6.92151e-07, No Iterations 27
DICPCG:  Solving for p, Initial residual = 6.91848e-07, Final residual = 6.91848e-07, No Iterations 0
time step continuity errors : sum local = 2.09571e-10, global = -2.00027e-20, cumulative = 8.29518e-19
ExecutionTime = 0.091132 s  ClockTime = 0 s

Courant Number mean: 0.0300818 max: 0.157024
Time = 1.08s

smoothSolver:  Solving for Ux, Initial residual = 0.001564, Final residual = 5.00823e-09, No Iterations 2
smoothSolver:  Solving for Uy, Initial residual = 0.00198787, Final residual = 6.88574e-09, No Iterations 2
DICPCG:  Solving for p, Initial residual = 0.00147081, Final residual = 6.81298e-07, No Iterations 27
DICPCG:  Solving for p, Initial residual = 6.81007e-07, Final residual = 6.81007e-07, No Iterations 0
time step continuity errors : sum local = 2.06464e-10, global = -2.8545e-21, cumulative = 8.26664e-19
ExecutionTime = 0.091672 s  ClockTime = 0 s

Courant Number mean: 0.0301637 max: 0.157151
Time = 1.09s

smoothSolver:  Solving for Ux, Initial residual = 0.00154553, Final residual = 4.95414e-09, No Iterations 2
smoothSolver:  Solving for Uy, Initial residual = 0.00196571, Final residual = 6.80606e-09, No Iterations 2
DICPCG:  Solving for p, Initial residual = 0.00146712, Final residual = 6.7165e-07, No Iterations 27
DICPCG:  Solving for p, Initial residual = 6.71372e-07, Final residual = 6.71372e-07, No Iterations 0
time step continuity errors : sum local = 2.03712e-10, global = 1.42071e-19, cumulative = 9.68735e-19
ExecutionTime = 0.092044 s  ClockTime = 0 s

Courant Number mean: 0.0302446 max: 0.157276
Time = 1.1s

smoothSolver:  Solving for Ux, Initial residual = 0.00152748, Final residual = 4.90092e-09, No Iterations 2
smoothSolver:  Solving for Uy, Initial residual = 0.00194398, Final residual = 6.72815e-09, No Iterations 2
DICPCG:  Solving for p, Initial residual = 0.0014765, Final residual = 6.72051e-07, No Iterations 27
DICPCG:  Solving for p, Initial residual = 6.71769e-07, Final residual = 6.71769e-07, No Iterations 0
time step continuity errors : sum local = 2.03985e-10, global = -5.0373e-20, cumulative = 9.18362e-19
ExecutionTime = 0.092632 s  ClockTime = 0 s

Courant Number mean: 0.0303247 max: 0.157398
Time = 1.11s

smoothSolver:  Solving for Ux, Initial residual = 0.00150988, Final residual = 4.84858e-09, No Iterations 2
smoothSolver:  Solving for Uy, Initial residual = 0.00192272, Final residual = 6.65198e-09, No Iterations 2
DICPCG:  Solving for p, Initial residual = 0.00153777, Final residual = 7.10197e-07, No Iterations 27
DICPCG:  Solving for p, Initial residual = 7.09889e-07, Final residual = 7.09889e-07, No Iterations 0
time step continuity errors : sum local = 2.15694e-10, global = 4.78171e-20, cumulative = 9.66179e-19
ExecutionTime = 0.093108 s  ClockTime = 0 s

Courant Number mean: 0.0304037 max: 0.157519
Time = 1.12s

smoothSolver:  Solving for Ux, Initial residual = 0.00149268, Final residual = 4.79747e-09, No Iterations 2
smoothSolver:  Solving for Uy, Initial residual = 0.00190206, Final residual = 6.5781e-09, No Iterations 2
DICPCG:  Solving for p, Initial residual = 0.00146078, Final residual = 9.99591e-07, No Iterations 26
DICPCG:  Solving for p, Initial residual = 9.9915e-07, Final residual = 9.9915e-07, No Iterations 0
time step continuity errors : sum local = 3.03384e-10, global = -1.41285e-19, cumulative = 8.24894e-19
ExecutionTime = 0.093685 s  ClockTime = 0 s

Courant Number mean: 0.0304822 max: 0.157637
Time = 1.13s

smoothSolver:  Solving for Ux, Initial residual = 0.00147572, Final residual = 4.74743e-09, No Iterations 2
smoothSolver:  Solving for Uy, Initial residual = 0.00188151, Final residual = 6.50469e-09, No Iterations 2
DICPCG:  Solving for p, Initial residual = 0.00165281, Final residual = 8.37684e-07, No Iterations 26
DICPCG:  Solving for p, Initial residual = 8.37318e-07, Final residual = 8.37318e-07, No Iterations 0
time step continuity errors : sum local = 2.52888e-10, global = 1.10121e-19, cumulative = 9.35014e-19
ExecutionTime = 0.094214 s  ClockTime = 0 s

Courant Number mean: 0.0305598 max: 0.157754
Time = 1.14s

smoothSolver:  Solving for Ux, Initial residual = 0.00145936, Final residual = 4.69724e-09, No Iterations 2
smoothSolver:  Solving for Uy, Initial residual = 0.00186015, Final residual = 6.42832e-09, No Iterations 2
DICPCG:  Solving for p, Initial residual = 0.00143603, Final residual = 9.20109e-07, No Iterations 26
DICPCG:  Solving for p, Initial residual = 9.19699e-07, Final residual = 9.19699e-07, No Iterations 0
time step continuity errors : sum local = 2.79528e-10, global = -6.10192e-20, cumulative = 8.73995e-19
ExecutionTime = 0.094744 s  ClockTime = 0 s

Courant Number mean: 0.0306365 max: 0.157869
Time = 1.15s

smoothSolver:  Solving for Ux, Initial residual = 0.0014433, Final residual = 4.6485e-09, No Iterations 2
smoothSolver:  Solving for Uy, Initial residual = 0.00184001, Final residual = 6.35651e-09, No Iterations 2
DICPCG:  Solving for p, Initial residual = 0.00138356, Final residual = 9.35286e-07, No Iterations 26
DICPCG:  Solving for p, Initial residual = 9.34858e-07, Final residual = 9.34858e-07, No Iterations 0
time step continuity errors : sum local = 2.8466e-10, global = -2.98939e-20, cumulative = 8.44101e-19
ExecutionTime = 0.095229 s  ClockTime = 0 s

Courant Number mean: 0.0307124 max: 0.157981
Time = 1.16s

smoothSolver:  Solving for Ux, Initial residual = 0.00142754, Final residual = 4.60072e-09, No Iterations 2
smoothSolver:  Solving for Uy, Initial residual = 0.00182051, Final residual = 6.28708e-09, No Iterations 2
DICPCG:  Solving for p, Initial residual = 0.0013704, Final residual = 9.17962e-07, No Iterations 26
DICPCG:  Solving for p, Initial residual = 9.17539e-07, Final residual = 9.17539e-07, No Iterations 0
time step continuity errors : sum local = 2.79629e-10, global = 3.70111e-20, cumulative = 8.81112e-19
ExecutionTime = 0.095695 s  ClockTime = 0 s

Courant Number mean: 0.0307874 max: 0.158092
Time = 1.17s

smoothSolver:  Solving for Ux, Initial residual = 0.00141221, Final residual = 4.55374e-09, No Iterations 2
smoothSolver:  Solving for Uy, Initial residual = 0.00180139, Final residual = 6.21907e-09, No Iterations 2
DICPCG:  Solving for p, Initial residual = 0.00135741, Final residual = 8.92174e-07, No Iterations 26
DICPCG:  Solving for p, Initial residual = 8.91774e-07, Final residual = 8.91774e-07, No Iterations 0
time step continuity errors : sum local = 2.71961e-10, global = 1.49587e-19, cumulative = 1.0307e-18
ExecutionTime = 0.096164 s  ClockTime = 0 s

Courant Number mean: 0.0308615 max: 0.158201
Time = 1.18s

smoothSolver:  Solving for Ux, Initial residual = 0.00139711, Final residual = 4.50748e-09, No Iterations 2
smoothSolver:  Solving for Uy, Initial residual = 0.00178257, Final residual = 6.15218e-09, No Iterations 2
DICPCG:  Solving for p, Initial residual = 0.00138693, Final residual = 8.65754e-07, No Iterations 26
DICPCG:  Solving for p, Initial residual = 8.65374e-07, Final residual = 8.65374e-07, No Iterations 0
time step continuity errors : sum local = 2.63915e-10, global = -1.35081e-19, cumulative = 8.95619e-19
ExecutionTime = 0.096591 s  ClockTime = 0 s

Courant Number mean: 0.0309351 max: 0.158309
Time = 1.19s

smoothSolver:  Solving for Ux, Initial residual = 0.00138222, Final residual = 4.46178e-09, No Iterations 2
smoothSolver:  Solving for Uy, Initial residual = 0.00176391, Final residual = 6.0859e-09, No Iterations 2
DICPCG:  Solving for p, Initial residual = 0.00137687, Final residual = 9.00146e-07, No Iterations 26
DICPCG:  Solving for p, Initial residual = 8.99762e-07, Final residual = 8.99762e-07, No Iterations 0
time step continuity errors : sum local = 2.74753e-10, global = -5.14721e-20, cumulative = 8.44147e-19
ExecutionTime = 0.09717 s  ClockTime = 0 s

Courant Number mean: 0.0310079 max: 0.158414
Time = 1.2s

smoothSolver:  Solving for Ux, Initial residual = 0.0013679, Final residual = 4.41687e-09, No Iterations 2
smoothSolver:  Solving for Uy, Initial residual = 0.00174578, Final residual = 6.02157e-09, No Iterations 2
DICPCG:  Solving for p, Initial residual = 0.00132699, Final residual = 8.19862e-07, No Iterations 26
DICPCG:  Solving for p, Initial residual = 8.19521e-07, Final residual = 8.19521e-07, No Iterations 0
time step continuity errors : sum local = 2.50415e-10, global = 6.5067e-20, cumulative = 9.09214e-19
ExecutionTime = 0.097795 s  ClockTime = 0 s

Courant Number mean: 0.0310799 max: 0.158518
Time = 1.21s

smoothSolver:  Solving for Ux, Initial residual = 0.00135384, Final residual = 4.37304e-09, No Iterations 2
smoothSolver:  Solving for Uy, Initial residual = 0.00172788, Final residual = 5.95776e-09, No Iterations 2
DICPCG:  Solving for p, Initial residual = 0.00132297, Final residual = 7.80671e-07, No Iterations 26
DICPCG:  Solving for p, Initial residual = 7.80354e-07, Final residual = 7.80354e-07, No Iterations 0
time step continuity errors : sum local = 2.38497e-10, global = 4.59558e-20, cumulative = 9.55169e-19
ExecutionTime = 0.098316 s  ClockTime = 0 s

Courant Number mean: 0.0311514 max: 0.15862
Time = 1.22s

smoothSolver:  Solving for Ux, Initial residual = 0.00133997, Final residual = 4.33004e-09, No Iterations 2
smoothSolver:  Solving for Uy, Initial residual = 0.00171018, Final residual = 5.89441e-09, No Iterations 2
DICPCG:  Solving for p, Initial residual = 0.00143678, Final residual = 7.34096e-07, No Iterations 26
DICPCG:  Solving for p, Initial residual = 7.33807e-07, Final residual = 7.33807e-07, No Iterations 0
time step continuity errors : sum local = 2.23615e-10, global = 6.57753e-20, cumulative = 1.02094e-18
ExecutionTime = 0.098721 s  ClockTime = 0 s

Courant Number mean: 0.0312231 max: 0.158721
Time = 1.23s

smoothSolver:  Solving for Ux, Initial residual = 0.00132631, Final residual = 4.28681e-09, No Iterations 2
smoothSolver:  Solving for Uy, Initial residual = 0.0016922, Final residual = 5.82936e-09, No Iterations 2
DICPCG:  Solving for p, Initial residual = 0.00186916, Final residual = 8.22211e-07, No Iterations 26
DICPCG:  Solving for p, Initial residual = 8.2185e-07, Final residual = 8.2185e-07, No Iterations 0
time step continuity errors : sum local = 2.4974e-10, global = 2.277e-19, cumulative = 1.24865e-18
ExecutionTime = 0.099108 s  ClockTime = 0 s

Courant Number mean: 0.0312952 max: 0.158821
Time = 1.24s

smoothSolver:  Solving for Ux, Initial residual = 0.00131322, Final residual = 4.24417e-09, No Iterations 2
smoothSolver:  Solving for Uy, Initial residual = 0.00167482, Final residual = 5.76458e-09, No Iterations 2
DICPCG:  Solving for p, Initial residual = 0.001719, Final residual = 8.64752e-07, No Iterations 27
DICPCG:  Solving for p, Initial residual = 8.6435e-07, Final residual = 8.6435e-07, No Iterations 0
time step continuity errors : sum local = 2.6546e-10, global = -1.55077e-19, cumulative = 1.09357e-18
ExecutionTime = 0.099476 s  ClockTime = 0 s

Courant Number mean: 0.0313667 max: 0.158918
Time = 1.25s

smoothSolver:  Solving for Ux, Initial residual = 0.00130001, Final residual = 4.20501e-09, No Iterations 2
smoothSolver:  Solving for Uy, Initial residual = 0.00166002, Final residual = 5.71677e-09, No Iterations 2
DICPCG:  Solving for p, Initial residual = 0.0013562, Final residual = 8.26662e-07, No Iterations 26
DICPCG:  Solving for p, Initial residual = 8.26279e-07, Final residual = 8.26279e-07, No Iterations 0
time step continuity errors : sum local = 2.53245e-10, global = 6.68997e-20, cumulative = 1.16047e-18
ExecutionTime = 0.099864 s  ClockTime = 0 s

Courant Number mean: 0.0314382 max: 0.159014
Time = 1.26s

smoothSolver:  Solving for Ux, Initial residual = 0.00128715, Final residual = 4.16444e-09, No Iterations 2
smoothSolver:  Solving for Uy, Initial residual = 0.00164361, Final residual = 5.65951e-09, No Iterations 2
DICPCG:  Solving for p, Initial residual = 0.00125886, Final residual = 7.22721e-07, No Iterations 26
DICPCG:  Solving for p, Initial residual = 7.22393e-07, Final residual = 7.22393e-07, No Iterations 0
time step continuity errors : sum local = 2.21512e-10, global = 2.31547e-20, cumulative = 1.18362e-18
ExecutionTime = 0.10027 s  ClockTime = 0 s

[...]
smoothSolver:  Solving for Uy, Initial residual = 6.14668e-10, Final residual = 1.11671e-15, No Iterations 2
DICPCG:  Solving for p, Initial residual = 7.96996e-07, Final residual = 7.96996e-07, No Iterations 0
DICPCG:  Solving for p, Initial residual = 7.96996e-07, Final residual = 7.96996e-07, No Iterations 0
time step continuity errors : sum local = 2.69065e-10, global = 2.28081e-19, cumulative = 6.01976e-18
ExecutionTime = 1.88442 s  ClockTime = 1 s

Courant Number mean: 0.0441529 max: 0.167303
Time = 49.7s

smoothSolver:  Solving for Ux, Initial residual = 4.20299e-10, Final residual = 7.19515e-16, No Iterations 2
smoothSolver:  Solving for Uy, Initial residual = 5.80415e-10, Final residual = 1.08161e-15, No Iterations 2
DICPCG:  Solving for p, Initial residual = 8.84258e-07, Final residual = 8.84258e-07, No Iterations 0
DICPCG:  Solving for p, Initial residual = 8.84258e-07, Final residual = 8.84258e-07, No Iterations 0
time step continuity errors : sum local = 2.98536e-10, global = 6.61956e-20, cumulative = 6.08596e-18
ExecutionTime = 1.88486 s  ClockTime = 1 s

Courant Number mean: 0.0441529 max: 0.167303
Time = 49.71s

smoothSolver:  Solving for Ux, Initial residual = 3.99554e-10, Final residual = 7.08788e-16, No Iterations 2
smoothSolver:  Solving for Uy, Initial residual = 5.50242e-10, Final residual = 1.06631e-15, No Iterations 2
DICPCG:  Solving for p, Initial residual = 9.6379e-07, Final residual = 9.6379e-07, No Iterations 0
DICPCG:  Solving for p, Initial residual = 9.6379e-07, Final residual = 9.6379e-07, No Iterations 0
time step continuity errors : sum local = 3.254e-10, global = -3.30597e-20, cumulative = 6.0529e-18
ExecutionTime = 1.88529 s  ClockTime = 1 s

Courant Number mean: 0.0441529 max: 0.167303
Time = 49.72s

smoothSolver:  Solving for Ux, Initial residual = 3.80593e-10, Final residual = 6.89018e-16, No Iterations 2
smoothSolver:  Solving for Uy, Initial residual = 5.23131e-10, Final residual = 1.03538e-15, No Iterations 2
DICPCG:  Solving for p, Initial residual = 1.03674e-06, Final residual = 2.18223e-07, No Iterations 1
DICPCG:  Solving for p, Initial residual = 2.18223e-07, Final residual = 2.18223e-07, No Iterations 0
time step continuity errors : sum local = 7.44181e-11, global = -1.52678e-19, cumulative = 5.90022e-18
ExecutionTime = 1.88572 s  ClockTime = 1 s

Courant Number mean: 0.0441529 max: 0.167303
Time = 49.73s

smoothSolver:  Solving for Ux, Initial residual = 3.00428e-09, Final residual = 3.4699e-15, No Iterations 2
smoothSolver:  Solving for Uy, Initial residual = 4.18295e-09, Final residual = 4.76401e-15, No Iterations 2
DICPCG:  Solving for p, Initial residual = 1.02027e-06, Final residual = 9.8414e-08, No Iterations 1
DICPCG:  Solving for p, Initial residual = 9.8414e-08, Final residual = 9.8414e-08, No Iterations 0
time step continuity errors : sum local = 3.39375e-11, global = 1.13164e-20, cumulative = 5.91154e-18
ExecutionTime = 1.88613 s  ClockTime = 1 s

Courant Number mean: 0.0441529 max: 0.167303
Time = 49.74s

smoothSolver:  Solving for Ux, Initial residual = 1.17751e-09, Final residual = 2.50407e-15, No Iterations 2
smoothSolver:  Solving for Uy, Initial residual = 1.68602e-09, Final residual = 3.77628e-15, No Iterations 2
DICPCG:  Solving for p, Initial residual = 3.86561e-07, Final residual = 3.86561e-07, No Iterations 0
DICPCG:  Solving for p, Initial residual = 3.86561e-07, Final residual = 3.86561e-07, No Iterations 0
time step continuity errors : sum local = 1.31405e-10, global = 1.3179e-19, cumulative = 6.04333e-18
ExecutionTime = 1.88647 s  ClockTime = 1 s

Courant Number mean: 0.0441529 max: 0.167303
Time = 49.75s

smoothSolver:  Solving for Ux, Initial residual = 1.19517e-09, Final residual = 2.4664e-15, No Iterations 2
smoothSolver:  Solving for Uy, Initial residual = 1.70567e-09, Final residual = 3.76944e-15, No Iterations 2
DICPCG:  Solving for p, Initial residual = 6.74217e-07, Final residual = 6.74217e-07, No Iterations 0
DICPCG:  Solving for p, Initial residual = 6.74217e-07, Final residual = 6.74217e-07, No Iterations 0
time step continuity errors : sum local = 2.28702e-10, global = 7.64617e-20, cumulative = 6.11979e-18
ExecutionTime = 1.88677 s  ClockTime = 1 s

Courant Number mean: 0.0441529 max: 0.167303
Time = 49.76s

smoothSolver:  Solving for Ux, Initial residual = 1.16245e-09, Final residual = 2.41102e-15, No Iterations 2
smoothSolver:  Solving for Uy, Initial residual = 1.6597e-09, Final residual = 3.71866e-15, No Iterations 2
DICPCG:  Solving for p, Initial residual = 9.33141e-07, Final residual = 9.33141e-07, No Iterations 0
DICPCG:  Solving for p, Initial residual = 9.33141e-07, Final residual = 9.33141e-07, No Iterations 0
time step continuity errors : sum local = 3.16281e-10, global = 1.58268e-19, cumulative = 6.27806e-18
ExecutionTime = 1.88708 s  ClockTime = 1 s

Courant Number mean: 0.0441529 max: 0.167303
Time = 49.77s

smoothSolver:  Solving for Ux, Initial residual = 1.11871e-09, Final residual = 2.34966e-15, No Iterations 2
smoothSolver:  Solving for Uy, Initial residual = 1.59633e-09, Final residual = 3.63871e-15, No Iterations 2
DICPCG:  Solving for p, Initial residual = 1.16626e-06, Final residual = 3.36586e-07, No Iterations 1
DICPCG:  Solving for p, Initial residual = 3.36586e-07, Final residual = 3.36586e-07, No Iterations 0
time step continuity errors : sum local = 1.14546e-10, global = 7.82828e-20, cumulative = 6.35634e-18
ExecutionTime = 1.88759 s  ClockTime = 1 s

Courant Number mean: 0.0441529 max: 0.167303
Time = 49.78s

smoothSolver:  Solving for Ux, Initial residual = 3.12527e-09, Final residual = 4.20811e-15, No Iterations 2
smoothSolver:  Solving for Uy, Initial residual = 4.40035e-09, Final residual = 5.71365e-15, No Iterations 2
DICPCG:  Solving for p, Initial residual = 1.13739e-06, Final residual = 1.18218e-07, No Iterations 1
DICPCG:  Solving for p, Initial residual = 1.18218e-07, Final residual = 1.18218e-07, No Iterations 0
time step continuity errors : sum local = 4.00675e-11, global = -2.32392e-19, cumulative = 6.12395e-18
ExecutionTime = 1.88794 s  ClockTime = 1 s

Courant Number mean: 0.0441529 max: 0.167303
Time = 49.79s

smoothSolver:  Solving for Ux, Initial residual = 1.74269e-09, Final residual = 3.70861e-15, No Iterations 2
smoothSolver:  Solving for Uy, Initial residual = 2.36368e-09, Final residual = 5.38294e-15, No Iterations 2
DICPCG:  Solving for p, Initial residual = 5.0082e-07, Final residual = 5.0082e-07, No Iterations 0
DICPCG:  Solving for p, Initial residual = 5.0082e-07, Final residual = 5.0082e-07, No Iterations 0
time step continuity errors : sum local = 1.69023e-10, global = 3.93277e-20, cumulative = 6.16328e-18
ExecutionTime = 1.88825 s  ClockTime = 1 s

Courant Number mean: 0.0441529 max: 0.167303
Time = 49.8s

smoothSolver:  Solving for Ux, Initial residual = 1.77997e-09, Final residual = 3.70758e-15, No Iterations 2
smoothSolver:  Solving for Uy, Initial residual = 2.41032e-09, Final residual = 5.45796e-15, No Iterations 2
DICPCG:  Solving for p, Initial residual = 8.88786e-07, Final residual = 8.88786e-07, No Iterations 0
DICPCG:  Solving for p, Initial residual = 8.88786e-07, Final residual = 8.88786e-07, No Iterations 0
time step continuity errors : sum local = 3.0025e-10, global = -1.98502e-19, cumulative = 5.96477e-18
ExecutionTime = 1.88855 s  ClockTime = 1 s

Courant Number mean: 0.0441529 max: 0.167303
Time = 49.81s

smoothSolver:  Solving for Ux, Initial residual = 1.73044e-09, Final residual = 3.63317e-15, No Iterations 2
smoothSolver:  Solving for Uy, Initial residual = 2.35279e-09, Final residual = 5.39069e-15, No Iterations 2
DICPCG:  Solving for p, Initial residual = 1.23775e-06, Final residual = 3.86894e-07, No Iterations 1
DICPCG:  Solving for p, Initial residual = 3.86894e-07, Final residual = 3.86894e-07, No Iterations 0
time step continuity errors : sum local = 1.3153e-10, global = -2.12266e-20, cumulative = 5.94355e-18
ExecutionTime = 1.88898 s  ClockTime = 1 s

Courant Number mean: 0.0441529 max: 0.167303
Time = 49.82s

smoothSolver:  Solving for Ux, Initial residual = 3.07893e-09, Final residual = 3.95353e-15, No Iterations 2
smoothSolver:  Solving for Uy, Initial residual = 4.02927e-09, Final residual = 5.0065e-15, No Iterations 2
DICPCG:  Solving for p, Initial residual = 1.14577e-06, Final residual = 1.11224e-07, No Iterations 1
DICPCG:  Solving for p, Initial residual = 1.11224e-07, Final residual = 1.11224e-07, No Iterations 0
time step continuity errors : sum local = 3.84454e-11, global = 1.04524e-19, cumulative = 6.04807e-18
ExecutionTime = 1.88935 s  ClockTime = 1 s

Courant Number mean: 0.0441529 max: 0.167303
Time = 49.83s

smoothSolver:  Solving for Ux, Initial residual = 1.79916e-09, Final residual = 3.76349e-15, No Iterations 2
smoothSolver:  Solving for Uy, Initial residual = 2.37054e-09, Final residual = 5.07425e-15, No Iterations 2
DICPCG:  Solving for p, Initial residual = 4.99964e-07, Final residual = 4.99964e-07, No Iterations 0
DICPCG:  Solving for p, Initial residual = 4.99964e-07, Final residual = 4.99964e-07, No Iterations 0
time step continuity errors : sum local = 1.69915e-10, global = -2.37415e-19, cumulative = 5.81066e-18
ExecutionTime = 1.88965 s  ClockTime = 1 s

Courant Number mean: 0.0441529 max: 0.167303
Time = 49.84s

smoothSolver:  Solving for Ux, Initial residual = 1.84386e-09, Final residual = 3.80478e-15, No Iterations 2
smoothSolver:  Solving for Uy, Initial residual = 2.43572e-09, Final residual = 5.19705e-15, No Iterations 2
DICPCG:  Solving for p, Initial residual = 9.16821e-07, Final residual = 9.16821e-07, No Iterations 0
DICPCG:  Solving for p, Initial residual = 9.16821e-07, Final residual = 9.16821e-07, No Iterations 0
time step continuity errors : sum local = 3.10913e-10, global = 2.5743e-19, cumulative = 6.06809e-18
ExecutionTime = 1.88996 s  ClockTime = 1 s

Courant Number mean: 0.0441529 max: 0.167303
Time = 49.85s

smoothSolver:  Solving for Ux, Initial residual = 1.79753e-09, Final residual = 3.74452e-15, No Iterations 2
smoothSolver:  Solving for Uy, Initial residual = 2.3815e-09, Final residual = 5.16005e-15, No Iterations 2
DICPCG:  Solving for p, Initial residual = 1.29703e-06, Final residual = 3.713e-07, No Iterations 1
DICPCG:  Solving for p, Initial residual = 3.713e-07, Final residual = 3.713e-07, No Iterations 0
time step continuity errors : sum local = 1.26711e-10, global = -2.82994e-20, cumulative = 6.03979e-18
ExecutionTime = 1.89026 s  ClockTime = 1 s

Courant Number mean: 0.0441529 max: 0.167303
Time = 49.86s

smoothSolver:  Solving for Ux, Initial residual = 3.095e-09, Final residual = 3.8881e-15, No Iterations 2
smoothSolver:  Solving for Uy, Initial residual = 4.13172e-09, Final residual = 4.89559e-15, No Iterations 2
DICPCG:  Solving for p, Initial residual = 1.14099e-06, Final residual = 1.09398e-07, No Iterations 1
DICPCG:  Solving for p, Initial residual = 1.09398e-07, Final residual = 1.09398e-07, No Iterations 0
time step continuity errors : sum local = 3.74038e-11, global = 1.24861e-19, cumulative = 6.16465e-18
ExecutionTime = 1.89058 s  ClockTime = 1 s

Courant Number mean: 0.0441529 max: 0.167303
Time = 49.87s

smoothSolver:  Solving for Ux, Initial residual = 1.83103e-09, Final residual = 3.73914e-15, No Iterations 2
smoothSolver:  Solving for Uy, Initial residual = 2.32698e-09, Final residual = 4.61636e-15, No Iterations 2
DICPCG:  Solving for p, Initial residual = 5.03045e-07, Final residual = 5.03045e-07, No Iterations 0
DICPCG:  Solving for p, Initial residual = 5.03045e-07, Final residual = 5.03045e-07, No Iterations 0
time step continuity errors : sum local = 1.69786e-10, global = -7.69191e-20, cumulative = 6.08773e-18
ExecutionTime = 1.89101 s  ClockTime = 1 s

Courant Number mean: 0.0441529 max: 0.167303
Time = 49.88s

smoothSolver:  Solving for Ux, Initial residual = 1.88444e-09, Final residual = 3.77118e-15, No Iterations 2
smoothSolver:  Solving for Uy, Initial residual = 2.3916e-09, Final residual = 4.70393e-15, No Iterations 2
DICPCG:  Solving for p, Initial residual = 9.08971e-07, Final residual = 9.08971e-07, No Iterations 0
DICPCG:  Solving for p, Initial residual = 9.08971e-07, Final residual = 9.08971e-07, No Iterations 0
time step continuity errors : sum local = 3.06869e-10, global = -1.16001e-19, cumulative = 5.97173e-18
ExecutionTime = 1.89136 s  ClockTime = 1 s

Courant Number mean: 0.0441529 max: 0.167303
Time = 49.89s

smoothSolver:  Solving for Ux, Initial residual = 1.83441e-09, Final residual = 3.71078e-15, No Iterations 2
smoothSolver:  Solving for Uy, Initial residual = 2.33265e-09, Final residual = 4.64406e-15, No Iterations 2
DICPCG:  Solving for p, Initial residual = 1.27684e-06, Final residual = 3.79702e-07, No Iterations 1
DICPCG:  Solving for p, Initial residual = 3.79702e-07, Final residual = 3.79702e-07, No Iterations 0
time step continuity errors : sum local = 1.28924e-10, global = -2.17577e-19, cumulative = 5.75415e-18
ExecutionTime = 1.8918 s  ClockTime = 1 s

Courant Number mean: 0.0441529 max: 0.167303
Time = 49.9s

smoothSolver:  Solving for Ux, Initial residual = 3.19437e-09, Final residual = 4.25987e-15, No Iterations 2
smoothSolver:  Solving for Uy, Initial residual = 4.1515e-09, Final residual = 5.42075e-15, No Iterations 2
DICPCG:  Solving for p, Initial residual = 1.14119e-06, Final residual = 1.00273e-07, No Iterations 1
DICPCG:  Solving for p, Initial residual = 1.00273e-07, Final residual = 1.00273e-07, No Iterations 0
time step continuity errors : sum local = 3.44579e-11, global = -1.51026e-19, cumulative = 5.60312e-18
ExecutionTime = 1.89222 s  ClockTime = 1 s

Courant Number mean: 0.0441529 max: 0.167303
Time = 49.91s

smoothSolver:  Solving for Ux, Initial residual = 1.88196e-09, Final residual = 3.77425e-15, No Iterations 2
smoothSolver:  Solving for Uy, Initial residual = 2.32963e-09, Final residual = 4.46669e-15, No Iterations 2
DICPCG:  Solving for p, Initial residual = 5.18715e-07, Final residual = 5.18715e-07, No Iterations 0
DICPCG:  Solving for p, Initial residual = 5.18715e-07, Final residual = 5.18715e-07, No Iterations 0
time step continuity errors : sum local = 1.76e-10, global = -2.71813e-19, cumulative = 5.33131e-18
ExecutionTime = 1.89265 s  ClockTime = 1 s

Courant Number mean: 0.0441529 max: 0.167303
Time = 49.92s

smoothSolver:  Solving for Ux, Initial residual = 1.92051e-09, Final residual = 3.77924e-15, No Iterations 2
smoothSolver:  Solving for Uy, Initial residual = 2.37498e-09, Final residual = 4.50264e-15, No Iterations 2
DICPCG:  Solving for p, Initial residual = 9.47469e-07, Final residual = 9.47469e-07, No Iterations 0
DICPCG:  Solving for p, Initial residual = 9.47469e-07, Final residual = 9.47469e-07, No Iterations 0
time step continuity errors : sum local = 3.21023e-10, global = -1.93352e-19, cumulative = 5.13796e-18
ExecutionTime = 1.89306 s  ClockTime = 1 s

Courant Number mean: 0.0441529 max: 0.167303
Time = 49.93s

smoothSolver:  Solving for Ux, Initial residual = 1.86753e-09, Final residual = 3.71721e-15, No Iterations 2
smoothSolver:  Solving for Uy, Initial residual = 2.30783e-09, Final residual = 4.4386e-15, No Iterations 2
DICPCG:  Solving for p, Initial residual = 1.33681e-06, Final residual = 3.74599e-07, No Iterations 1
DICPCG:  Solving for p, Initial residual = 3.74599e-07, Final residual = 3.74599e-07, No Iterations 0
time step continuity errors : sum local = 1.27653e-10, global = 4.82046e-20, cumulative = 5.18616e-18
ExecutionTime = 1.8934 s  ClockTime = 1 s

Courant Number mean: 0.0441529 max: 0.167303
Time = 49.94s

smoothSolver:  Solving for Ux, Initial residual = 3.36997e-09, Final residual = 4.68848e-15, No Iterations 2
smoothSolver:  Solving for Uy, Initial residual = 4.49645e-09, Final residual = 5.96095e-15, No Iterations 2
DICPCG:  Solving for p, Initial residual = 1.15727e-06, Final residual = 1.06423e-07, No Iterations 1
DICPCG:  Solving for p, Initial residual = 1.06423e-07, Final residual = 1.06423e-07, No Iterations 0
time step continuity errors : sum local = 3.64523e-11, global = 7.97736e-20, cumulative = 5.26594e-18
ExecutionTime = 1.8937 s  ClockTime = 1 s

Courant Number mean: 0.0441529 max: 0.167303
Time = 49.95s

smoothSolver:  Solving for Ux, Initial residual = 2.02281e-09, Final residual = 4.02469e-15, No Iterations 2
smoothSolver:  Solving for Uy, Initial residual = 2.48405e-09, Final residual = 4.68412e-15, No Iterations 2
DICPCG:  Solving for p, Initial residual = 5.62574e-07, Final residual = 5.62574e-07, No Iterations 0
DICPCG:  Solving for p, Initial residual = 5.62574e-07, Final residual = 5.62574e-07, No Iterations 0
time step continuity errors : sum local = 1.90263e-10, global = -1.03507e-20, cumulative = 5.25559e-18
ExecutionTime = 1.89401 s  ClockTime = 1 s

Courant Number mean: 0.0441529 max: 0.167303
Time = 49.96s

smoothSolver:  Solving for Ux, Initial residual = 2.06017e-09, Final residual = 4.03027e-15, No Iterations 2
smoothSolver:  Solving for Uy, Initial residual = 2.51561e-09, Final residual = 4.68396e-15, No Iterations 2
DICPCG:  Solving for p, Initial residual = 1.00535e-06, Final residual = 2.89086e-07, No Iterations 1
DICPCG:  Solving for p, Initial residual = 2.89086e-07, Final residual = 2.89086e-07, No Iterations 0
time step continuity errors : sum local = 9.829e-11, global = -1.6424e-20, cumulative = 5.23916e-18
ExecutionTime = 1.89432 s  ClockTime = 1 s

Courant Number mean: 0.0441529 max: 0.167303
Time = 49.97s

smoothSolver:  Solving for Ux, Initial residual = 2.0165e-09, Final residual = 2.65577e-15, No Iterations 2
smoothSolver:  Solving for Uy, Initial residual = 2.68944e-09, Final residual = 3.63075e-15, No Iterations 2
DICPCG:  Solving for p, Initial residual = 7.67701e-07, Final residual = 7.67701e-07, No Iterations 0
DICPCG:  Solving for p, Initial residual = 7.67701e-07, Final residual = 7.67701e-07, No Iterations 0
time step continuity errors : sum local = 2.60052e-10, global = 2.87923e-19, cumulative = 5.52709e-18
ExecutionTime = 1.89464 s  ClockTime = 1 s

Courant Number mean: 0.0441529 max: 0.167303
Time = 49.98s

smoothSolver:  Solving for Ux, Initial residual = 2.11053e-09, Final residual = 2.93732e-15, No Iterations 2
smoothSolver:  Solving for Uy, Initial residual = 2.8212e-09, Final residual = 4.01402e-15, No Iterations 2
DICPCG:  Solving for p, Initial residual = 1.34596e-06, Final residual = 1.49552e-07, No Iterations 1
DICPCG:  Solving for p, Initial residual = 1.49552e-07, Final residual = 1.49552e-07, No Iterations 0
time step continuity errors : sum local = 5.08978e-11, global = 2.69365e-19, cumulative = 5.79645e-18
ExecutionTime = 1.89495 s  ClockTime = 1 s

Courant Number mean: 0.0441529 max: 0.167303
Time = 49.99s

smoothSolver:  Solving for Ux, Initial residual = 2.12229e-09, Final residual = 1.46054e-15, No Iterations 2
smoothSolver:  Solving for Uy, Initial residual = 2.49771e-09, Final residual = 1.60957e-15, No Iterations 2
DICPCG:  Solving for p, Initial residual = 8.61414e-07, Final residual = 8.61414e-07, No Iterations 0
DICPCG:  Solving for p, Initial residual = 8.61414e-07, Final residual = 8.61414e-07, No Iterations 0
time step continuity errors : sum local = 2.91797e-10, global = -3.64224e-20, cumulative = 5.76003e-18
ExecutionTime = 1.89524 s  ClockTime = 1 s

Courant Number mean: 0.0441529 max: 0.167303
Time = 50s

smoothSolver:  Solving for Ux, Initial residual = 2.13249e-09, Final residual = 1.44472e-15, No Iterations 2
smoothSolver:  Solving for Uy, Initial residual = 2.51046e-09, Final residual = 1.63317e-15, No Iterations 2
DICPCG:  Solving for p, Initial residual = 1.55053e-06, Final residual = 9.34225e-08, No Iterations 1
DICPCG:  Solving for p, Initial residual = 9.34225e-08, Final residual = 9.34225e-08, No Iterations 0
time step continuity errors : sum local = 3.24975e-11, global = 1.01898e-20, cumulative = 5.77022e-18
ExecutionTime = 1.89645 s  ClockTime = 1 s

End

